#    Name: 4fhh_0U3_1_INTS_M
#    Modification time : Mon Mar 24 20:02:08 2014

@<TRIPOS>MOLECULE
4fhh_0U3_1_INTS_M
  115     0     9     0     0
SMALL
NO_CHARGES


@<TRIPOS>ATOM
      1 CA          1.2850   38.8340   36.0475 C.3       3 GLC5        0.0000 
      2 CA          1.5220   38.5270   37.8510 C.3       9 GLL5        0.0000 
      3 CA          1.0480   39.1410   34.2440 C.3       6 GLP5        0.0000 
      4 CA         -0.6465   33.9110   41.6230 C.3       3 GLC5        0.0000 
      5 CA          0.7250   34.0950   40.3900 C.3       9 GLL5        0.0000 
      6 CA         -2.0180   33.7270   42.8560 C.3       6 GLP5        0.0000 
      7 CA          0.4975   32.1875   41.4360 C.3       3 GLC5        0.0000 
      8 CA          0.2700   30.2800   42.4820 C.3       6 GLP5        0.0000 
      9 CA          3.8520   35.2375   39.8625 C.3       3 GLC5        0.0000 
     10 CA          2.2050   34.2430   40.9270 C.3       9 GLL5        0.0000 
     11 CA          5.4990   36.2320   38.7980 C.3       6 GLP5        0.0000 
     12 CA          3.4755   34.7650   42.1315 C.3       3 GLC5        0.0000 
     13 CA          4.7460   35.2870   43.3360 C.3       6 GLP5        0.0000 
     14 CA         -2.0465   33.9880   35.3315 C.3       3 GLC5        0.0000 
     15 CA         -2.1550   34.0500   37.4330 C.3       9 GLL5        0.0000 
     16 CA         -1.9380   33.9260   33.2300 C.3       6 GLP5        0.0000 
     17 CA         -1.0455   35.4625   36.0830 C.3       3 GLC5        0.0000 
     18 CA          0.0640   36.8750   34.7330 C.3       6 GLP5        0.0000 
     19 CA         -3.8180   34.6545   37.2320 C.3       3 GLC5        0.0000 
     20 CA         -5.4810   35.2590   37.0310 C.3       6 GLP5        0.0000 
     21 CA          0.7320   30.9625   40.5410 C.3       3 GLC5        0.0000 
     22 CA          1.1940   31.6450   38.6000 C.3       9 GLL5        0.0000 
     23 CA          0.2905   28.9205   37.8990 C.3       3 GLC5        0.0000 
     24 CA          1.9770   29.2150   38.5190 C.3       9 GLL5        0.0000 
     25 CA         -1.3960   28.6260   37.2790 C.3       6 GLP5        0.0000 
     26 CA          1.8415   27.8895   37.3160 C.3       3 GLC5        0.0000 
     27 CA          1.7060   26.5640   36.1130 C.3       6 GLP5        0.0000 
     28 CA          2.3685   27.5540   39.3790 C.3       3 GLC5        0.0000 
     29 CA          2.7600   25.8930   40.2390 C.3       6 GLP5        0.0000 
     30 CA          0.2705   28.0990   39.3310 C.3       3 GLC5        0.0000 
     31 CA         -1.4360   26.9830   40.1430 C.3       6 GLP5        0.0000 
     32 CA          1.1235   29.7475   40.5005 C.3       3 GLC5        0.0000 
     33 CA          4.0130   28.5370   38.3130 C.3       3 GLC5        0.0000 
     34 CA          6.0490   27.8590   38.1070 C.3       6 GLP5        0.0000 
     35 CA          0.5385   34.9790   35.6210 C.3       3 GLC5        0.0000 
     36 CA          1.0130   33.0830   36.5090 C.3       9 GLL5        0.0000 
     37 N           5.6355   42.9145   37.6750 N.am      2 SEC2        0.0000 
     38 N           4.9900   42.0940   36.6310 N.am      8 SEL2        0.0000 
     39 N           6.2810   43.7350   38.7190 N.am      5 SEP2        0.0000 
     40 CA          4.4715   40.8620   39.3990 C.3       3 GLC5        0.0000 
     41 CA          2.4610   40.4630   38.7050 C.3       9 GLL5        0.0000 
     42 CA          6.4820   41.2610   40.0930 C.3       6 GLP5        0.0000 
     43 CA          2.0030   39.8575   40.5630 C.3       3 GLC5        0.0000 
     44 CA          1.5450   39.2520   42.4210 C.3       6 GLP5        0.0000 
     45 O           4.4915   40.2305   36.3265 O.2       1 ALC1        0.0000 
     46 O           4.0330   41.2050   37.0390 O.2       7 ALL1        0.0000 
     47 O           4.9500   39.2560   35.6140 O.2       4 ALP1        0.0000 
     48 N           5.0900   43.0655   38.8095 N.am      2 SEC2        0.0000 
     49 N           3.8990   42.3960   38.9000 N.am      8 SEL2        0.0000 
     50 CA          3.3560   28.1215   30.5735 C.3       3 GLC5        0.0000 
     51 CA          4.7700   28.1320   32.0150 C.3       9 GLL5        0.0000 
     52 CA          1.9420   28.1110   29.1320 C.3       6 GLP5        0.0000 
     53 CA          6.4860   27.3450   32.3690 C.3       3 GLC5        0.0000 
     54 CA          8.2020   26.5580   32.7230 C.3       6 GLP5        0.0000 
     55 CA          4.5125   26.6390   31.1995 C.3       3 GLC5        0.0000 
     56 CA          4.2550   25.1460   30.3840 C.3       6 GLP5        0.0000 
     57 CA          2.7725   29.1625   30.3700 C.3       3 GLC5        0.0000 
     58 CA          3.6030   30.2140   31.6080 C.3       9 GLL5        0.0000 
     59 CA          1.6710   31.3365   31.8215 C.3       3 GLC5        0.0000 
     60 CA         -0.2610   32.4590   32.0350 C.3       6 GLP5        0.0000 
     61 CA          3.5295   31.6575   30.4870 C.3       3 GLC5        0.0000 
     62 CA          3.4560   33.1010   29.3660 C.3       6 GLP5        0.0000 
     63 CA          6.3670   32.0925   33.1625 C.3       3 GLC5        0.0000 
     64 CA          5.9990   30.1910   32.4830 C.3       9 GLL5        0.0000 
     65 CA          6.7350   33.9940   33.8420 C.3       6 GLP5        0.0000 
     66 CA          7.1005   28.3745   32.6030 C.3       3 GLC5        0.0000 
     67 CA          5.9805   29.4985   30.4200 C.3       3 GLC5        0.0000 
     68 CA          5.9620   28.8060   28.3570 C.3       6 GLP5        0.0000 
     69 CA          7.4970   30.6500   31.4580 C.3       3 GLC5        0.0000 
     70 CA          8.9950   31.1090   30.4330 C.3       6 GLP5        0.0000 
     71 CA          7.6220   30.7380   33.5210 C.3       3 GLC5        0.0000 
     72 CA          9.2450   31.2850   34.5590 C.3       6 GLP5        0.0000 
     73 CA          2.4160   28.3685   35.2850 C.3       3 GLC5        0.0000 
     74 CA          3.1260   30.1730   34.4570 C.3       9 GLL5        0.0000 
     75 N           3.7405   27.4145   35.3655 N.am      2 SEC2        0.0000 
     76 N           4.4090   28.2680   34.7550 N.am      8 SEL2        0.0000 
     77 N           3.0720   26.5610   35.9760 N.am      5 SEP2        0.0000 
     78 O           5.5595   28.3435   35.8975 O.2       1 ALC1        0.0000 
     79 O           4.4090   28.2680   34.7550 O.2       7 ALL1        0.0000 
     80 O           6.7100   28.4190   37.0400 O.2       4 ALP1        0.0000 
     81 CA         -1.6295   38.2580   40.4900 C.3       3 GLC5        0.0000 
     82 CA         -0.9240   39.2520   38.8070 C.3       9 GLL5        0.0000 
     83 CA         -2.3350   37.2640   42.1730 C.3       6 GLP5        0.0000 
     84 CA         -2.1310   40.2930   38.2740 C.3       3 GLC5        0.0000 
     85 CA         -3.3380   41.3340   37.7410 C.3       6 GLP5        0.0000 
     86 CA          3.8792   36.5097   38.2583 C.3       3 GLC5        0.0000 
     87 CA          2.4420   37.4690   37.5710 C.3       9 GLL5        0.0000 
     88 CA          1.6970   37.9165   39.7795 C.3       3 GLC5        0.0000 
     89 CA          1.4120   37.8350   41.8480 C.3       6 GLP5        0.0000 
     90 CA          0.0295   37.2018   36.6650 C.3       3 GLC5        0.0000 
     91 CA          0.1520   38.2090   38.4600 C.3       9 GLL5        0.0000 
     92 CA          0.7899   36.5671   36.4099 C.3       3 GLC5        0.0000 
     93 CA          0.7720   35.7310   38.4550 C.3       9 GLL5        0.0000 
     94 CA          1.4183   36.8768   40.0042 C.3       3 GLC5        0.0000 
     95 CA          2.0770   36.1060   37.8660 C.3       9 GLL5        0.0000 
     96 CA         -2.9725   34.1775   39.6292 C.3       3 GLC5        0.0000 
     97 CA         -1.2950   34.0020   38.7560 C.3       9 GLL5        0.0000 
     98 CA         -4.2200   34.3290   41.1640 C.3       6 GLP5        0.0000 
     99 CA         -2.3820   32.2345   37.9207 C.3       3 GLC5        0.0000 
    100 CA         -3.0390   30.4430   37.7470 C.3       6 GLP5        0.0000 
    101 CA          1.4385   36.0020   41.2533 C.3       3 GLC5        0.0000 
    102 CA          1.7080   28.5980   36.5940 C.3       3 GLC5        0.0000 
    103 CA          1.6460   30.5300   37.8420 C.3       9 GLL5        0.0000 
    104 CA          0.1005   29.7684   37.2717 C.3       3 GLC5        0.0000 
    105 CA          1.7740   30.7340   36.3080 C.3       9 GLL5        0.0000 
    106 CA         -0.3375   32.0160   34.8925 C.3       3 GLC5        0.0000 
    107 CA          1.4410   32.0410   35.7270 C.3       9 GLL5        0.0000 
    108 CA         -1.9020   31.4700   33.6670 C.3       6 GLP5        0.0000 
    109 CA          2.7575   33.2335   35.2225 C.3       3 GLC5        0.0000 
    110 CA          4.2880   33.9050   34.3270 C.3       6 GLP5        0.0000 
    111 CA          5.0600   29.1687   30.1562 C.3       3 GLC5        0.0000 
    112 CA          4.6560   29.5660   32.5910 C.3       9 GLL5        0.0000 
    113 CA          4.0365   31.8845   34.3105 C.3       3 GLC5        0.0000 
    114 CA          4.4440   29.5550   34.1310 C.3       9 GLL5        0.0000 
    115 CA          0.4738   38.1126   40.2750 C.3       3 GLC5        0.0000 
@<TRIPOS>BOND
@<TRIPOS>SUBSTRUCTURE
     1 ALC1       45 GROUP        1 X    ALC  0     ROOT ALC X 1
     2 SEC2       37 GROUP        1 X    SEC  0     **** SEC X 2
     3 GLC5        1 GROUP        1 X    GLC  0     **** GLC X 6
     4 ALP1       47 GROUP        1 Y    ALP  0     ROOT ALP Y 8
     5 SEP2       39 GROUP        1 Y    SEP  0     **** SEP Y 9
     6 GLP5        3 GROUP        1 Y    GLP  0     **** GLP Y 13
     7 ALL1       46 GROUP        1 Z    ALL  0     ROOT ALL Z 15
     8 SEL2       38 GROUP        1 Z    SEL  0     **** SEL Z 16
     9 GLL5        2 GROUP        1 Z    GLL  0     **** GLL Z 20
@<TRIPOS>SET

