#    Name: 4fhh_0U3_1_ligand
#    Modification time : Mon Mar 24 20:02:08 2014

@<TRIPOS>MOLECULE
4fhh_0U3_1_ligand
   72    73     1     0     0
SMALL
NO_CHARGES


@<TRIPOS>ATOM
      1 C1          2.4420   37.4690   37.5710 C.ar      1 0U3501      0.0000 
      2 C2          1.5220   38.5270   37.8510 C.ar      1 0U3501      0.0000 
      3 C3          0.1520   38.2090   38.4600 C.ar      1 0U3501      0.0000 
      4 C4         -0.1620   36.8480   38.7340 C.ar      1 0U3501      0.0000 
      5 C5          0.7720   35.7310   38.4550 C.ar      1 0U3501      0.0000 
      6 C6          2.0770   36.1060   37.8660 C.ar      1 0U3501      0.0000 
      7 C7          0.3310   34.2240   38.8030 C.3       1 0U3501      0.0000 
      8 C8          0.8590   32.9690   37.9550 C.ar      1 0U3501      0.0000 
      9 C9         -1.2950   34.0020   38.7560 C.3       1 0U3501      0.0000 
     10 C10         0.7250   34.0950   40.3900 C.3       1 0U3501      0.0000 
     11 C11         2.2050   34.2430   40.9270 C.3       1 0U3501      0.0000 
     12 C12        -2.1550   34.0500   37.4330 C.3       1 0U3501      0.0000 
     13 C13         1.1940   31.6450   38.6000 C.ar      1 0U3501      0.0000 
     14 C14         1.6460   30.5300   37.8420 C.ar      1 0U3501      0.0000 
     15 C15         1.7740   30.7340   36.3080 C.ar      1 0U3501      0.0000 
     16 C16         1.9770   29.2150   38.5190 C.3       1 0U3501      0.0000 
     17 C17         1.4410   32.0410   35.7270 C.ar      1 0U3501      0.0000 
     18 C18         1.0130   33.0830   36.5090 C.ar      1 0U3501      0.0000 
     19 O19         1.8540   39.7890   37.5830 O.3       1 0U3501      0.0000 
     20 O22         4.9900   42.0940   36.6310 O.3       1 0U3501      0.0000 
     21 C20         2.4610   40.4630   38.7050 C.3       1 0U3501      0.0000 
     22 C21         3.5280   41.4430   38.2240 C.2       1 0U3501      0.0000 
     23 N23         4.0330   41.2050   37.0390 N.am      1 0U3501      0.0000 
     24 O24         3.8990   42.3960   38.9000 O.2       1 0U3501      0.0000 
     25 C25         4.6560   29.5660   32.5910 C.3       1 0U3501      0.0000 
     26 C26         4.7700   28.1320   32.0150 C.3       1 0U3501      0.0000 
     27 C27         3.6030   30.2140   31.6080 C.3       1 0U3501      0.0000 
     28 C28         5.9990   30.1910   32.4830 C.3       1 0U3501      0.0000 
     29 C29         3.1260   30.1730   34.4570 C.3       1 0U3501      0.0000 
     30 O30         2.2490   29.5330   35.4950 O.3       1 0U3501      0.0000 
     31 C31         4.4440   29.5550   34.1310 C.3       1 0U3501      0.0000 
     32 O32         4.4090   28.2680   34.7550 O.3       1 0U3501      0.0000 
     33 C33        -0.9240   39.2520   38.8070 C.3       1 0U3501      0.0000 
     34 H           3.3474   37.6708   37.1672 H         1 0U3501      0.0000 
     35 H          -1.0743   36.6028   39.1452 H         1 0U3501      0.0000 
     36 H           2.7417   35.3495   37.6641 H         1 0U3501      0.0000 
     37 H          -1.7309   34.7493   39.4889 H         1 0U3501      0.0000 
     38 H          -1.4868   33.0082   39.2671 H         1 0U3501      0.0000 
     39 H           0.3227   33.0970   40.7317 H         1 0U3501      0.0000 
     40 H           0.0747   34.8398   40.9349 H         1 0U3501      0.0000 
     41 H           1.0806   31.5862   39.6108 H         1 0U3501      0.0000 
     42 H           1.5447   32.1350   34.7069 H         1 0U3501      0.0000 
     43 H           0.7800   34.0051   36.0894 H         1 0U3501      0.0000 
     44 H           2.9398   39.7497   39.3875 H         1 0U3501      0.0000 
     45 H           1.7175   41.0282   39.2808 H         1 0U3501      0.0000 
     46 H           3.7568   40.4315   36.4478 H         1 0U3501      0.0000 
     47 H           3.2982   31.2526   34.7569 H         1 0U3501      0.0000 
     48 H           2.5268   30.2706   33.4997 H         1 0U3501      0.0000 
     49 H           5.2112   30.1819   34.5819 H         1 0U3501      0.0000 
     50 H           2.8148   33.5576   40.5291 H         1 0U3501      0.0000 
     51 H           2.5908   35.1397   40.7102 H         1 0U3501      0.0000 
     52 H           2.2522   34.1360   41.9201 H         1 0U3501      0.0000 
     53 H          -2.0830   34.9361   36.9752 H         1 0U3501      0.0000 
     54 H          -1.8634   33.3557   36.7751 H         1 0U3501      0.0000 
     55 H          -3.1255   33.8921   37.6150 H         1 0U3501      0.0000 
     56 H           2.2823   28.5256   37.8621 H         1 0U3501      0.0000 
     57 H           2.7063   29.3187   39.1953 H         1 0U3501      0.0000 
     58 H           1.1857   28.8340   38.9973 H         1 0U3501      0.0000 
     59 H           5.2494   28.1213   31.1374 H         1 0U3501      0.0000 
     60 H           5.2712   27.5234   32.6302 H         1 0U3501      0.0000 
     61 H           3.8714   27.7202   31.8632 H         1 0U3501      0.0000 
     62 H           3.4929   31.1938   31.7750 H         1 0U3501      0.0000 
     63 H           3.8741   30.1084   30.6512 H         1 0U3501      0.0000 
     64 H           2.6993   29.7969   31.7043 H         1 0U3501      0.0000 
     65 H           6.6882   29.6817   32.9984 H         1 0U3501      0.0000 
     66 H           6.3139   30.2331   31.5348 H         1 0U3501      0.0000 
     67 H           6.0024   31.1271   32.8348 H         1 0U3501      0.0000 
     68 H          -0.5955   39.9147   39.4800 H         1 0U3501      0.0000 
     69 H          -1.2122   39.7703   38.0018 H         1 0U3501      0.0000 
     70 H          -1.7437   38.8265   39.1905 H         1 0U3501      0.0000 
     71 H           5.6635   41.5417   36.1397 H         1 0U3501      0.0000 
     72 H           5.0916   28.3155   35.4843 H         1 0U3501      0.0000 
@<TRIPOS>BOND
     1    2    1 ar   
     2    6    1 ar   
     3   34    1 1    
     4    3    2 ar   
     5   19    2 1    
     6    4    3 ar   
     7   33    3 1    
     8    5    4 ar   
     9   35    4 1    
    10    6    5 ar   
    11    7    5 1    
    12   36    6 1    
    13    8    7 1    
    14    9    7 1    
    15   10    7 1    
    16   13    8 ar   
    17   18    8 ar   
    18   12    9 1    
    19   37    9 1    
    20   38    9 1    
    21   11   10 1    
    22   39   10 1    
    23   40   10 1    
    24   50   11 1    
    25   51   11 1    
    26   52   11 1    
    27   53   12 1    
    28   54   12 1    
    29   55   12 1    
    30   14   13 ar   
    31   41   13 1    
    32   15   14 ar   
    33   16   14 1    
    34   17   15 ar   
    35   30   15 1    
    36   56   16 1    
    37   57   16 1    
    38   58   16 1    
    39   18   17 ar   
    40   42   17 1    
    41   43   18 1    
    42   21   19 1    
    43   23   20 1    
    44   71   20 1    
    45   22   21 1    
    46   44   21 1    
    47   45   21 1    
    48   23   22 am   
    49   24   22 2    
    50   46   23 1    
    51   26   25 1    
    52   27   25 1    
    53   28   25 1    
    54   31   25 1    
    55   59   26 1    
    56   60   26 1    
    57   61   26 1    
    58   62   27 1    
    59   63   27 1    
    60   64   27 1    
    61   65   28 1    
    62   66   28 1    
    63   67   28 1    
    64   30   29 1    
    65   31   29 1    
    66   47   29 1    
    67   48   29 1    
    68   32   31 1    
    69   49   31 1    
    70   72   32 1    
    71   68   33 1    
    72   69   33 1    
    73   70   33 1    
@<TRIPOS>SUBSTRUCTURE
     1 0U3501      1 GROUP   
@<TRIPOS>SET

