#    Name: 3dwb_5HD_1_INTS_M
#    Modification time : Tue Mar 25 00:34:50 2014

@<TRIPOS>MOLECULE
3dwb_5HD_1_INTS_M
   31     0     3     0     0
SMALL
NO_CHARGES


@<TRIPOS>ATOM
      1 CA         73.2750   19.0275   55.3530 C.3       1 GLC5        0.0000 
      2 CA         73.6100   18.2290   53.3550 C.3       3 GLL5        0.0000 
      3 CA         72.9400   19.8260   57.3510 C.3       2 GLP5        0.0000 
      4 CA         74.3295   15.9665   55.6270 C.3       1 GLC5        0.0000 
      5 CA         74.1610   16.8900   53.8210 C.3       3 GLL5        0.0000 
      6 CA         74.4980   15.0430   57.4330 C.3       2 GLP5        0.0000 
      7 CA         73.6215   15.0215   53.8730 C.3       1 GLC5        0.0000 
      8 CA         73.0820   13.1530   53.9250 C.3       2 GLP5        0.0000 
      9 CA         67.7270   20.2040   50.8735 C.3       1 GLC5        0.0000 
     10 CA         67.4310   18.3110   50.4100 C.3       3 GLL5        0.0000 
     11 CA         68.0230   22.0970   51.3370 C.3       2 GLP5        0.0000 
     12 CA         69.1200   19.6170   51.9010 C.3       1 GLC5        0.0000 
     13 CA         69.7160   17.6600   51.2210 C.3       3 GLL5        0.0000 
     14 CA         68.5240   21.5740   52.5810 C.3       2 GLP5        0.0000 
     15 CA         69.7135   17.6165   48.0180 C.3       1 GLC5        0.0000 
     16 CA         70.9700   16.5430   49.3250 C.3       3 GLL5        0.0000 
     17 CA         68.4570   18.6900   46.7110 C.3       2 GLP5        0.0000 
     18 CA         72.6285   15.7185   51.3935 C.3       1 GLC5        0.0000 
     19 CA         72.2280   17.6500   51.2880 C.3       3 GLL5        0.0000 
     20 CA         73.0290   13.7870   51.4990 C.3       2 GLP5        0.0000 
     21 CA         73.2175   20.1270   53.0065 C.3       1 GLC5        0.0000 
     22 CA         72.2100   18.0990   52.7590 C.3       3 GLL5        0.0000 
     23 CA         73.5250   22.0900   52.9560 C.3       2 GLP5        0.0000 
     24 CA         71.2670   17.8670   54.1880 C.3       1 GLC5        0.0000 
     25 CA         69.6240   17.5700   55.3190 C.3       2 GLP5        0.0000 
     26 CA         68.0404   18.1613   48.5111 C.3       1 GLC5        0.0000 
     27 CA         68.3820   17.1450   50.6770 C.3       3 GLL5        0.0000 
     28 CA         68.0921   17.5110   52.6011 C.3       1 GLC5        0.0000 
     29 CA         67.3730   17.3280   54.3200 C.3       2 GLP5        0.0000 
     30 CA         72.3429   15.1395   50.4526 C.3       1 GLC5        0.0000 
     31 CA         70.9670   16.8590   50.8320 C.3       3 GLL5        0.0000 
@<TRIPOS>BOND
@<TRIPOS>SUBSTRUCTURE
     1 GLC5        1 GROUP        1 X    GLC  0     ROOT GLC X 6
     2 GLP5        3 GROUP        1 Y    GLP  0     ROOT GLP Y 13
     3 GLL5        2 GROUP        1 Z    GLL  0     ROOT GLL Z 20
@<TRIPOS>SET

