#    Name: 3dwb_5HD_1_ligand
#    Modification time : Tue Mar 25 00:34:50 2014

@<TRIPOS>MOLECULE
3dwb_5HD_1_ligand
   38    37     1     0     0
SMALL
NO_CHARGES


@<TRIPOS>ATOM
      1 C1         72.2100   18.0990   52.7590 C.3       1 5HD816      0.0000 
      2 C2         73.6100   18.2290   53.3550 C.3       1 5HD816      0.0000 
      3 C3         74.1610   16.8900   53.8210 C.3       1 5HD816      0.0000 
      4 O14        65.3220   18.9660   49.5250 O.3       1 5HD816      0.0000 
      5 C13        66.3000   17.9290   49.4810 C.3       1 5HD816      0.0000 
      6 C12        67.4310   18.3110   50.4100 C.3       1 5HD816      0.0000 
      7 C11        68.3820   17.1450   50.6770 C.3       1 5HD816      0.0000 
      8 C10        69.7160   17.6600   51.2210 C.3       1 5HD816      0.0000 
      9 C6         70.9670   16.8590   50.8320 C.3       1 5HD816      0.0000 
     10 C7         70.9700   16.5430   49.3250 C.3       1 5HD816      0.0000 
     11 C8         72.3450   16.2830   48.7340 C.3       1 5HD816      0.0000 
     12 O9         72.2310   16.2500   47.3130 O.3       1 5HD816      0.0000 
     13 C5         72.2280   17.6500   51.2880 C.3       1 5HD816      0.0000 
     14 O4         75.5960   16.8950   53.8220 O.3       1 5HD816      0.0000 
     15 H          71.6973   19.0655   52.8271 H         1 5HD816      0.0000 
     16 H          71.6348   17.3715   53.3434 H         1 5HD816      0.0000 
     17 H          73.5741   18.9203   54.2037 H         1 5HD816      0.0000 
     18 H          74.2812   18.6534   52.6009 H         1 5HD816      0.0000 
     19 H          73.7633   16.1095   53.1534 H         1 5HD816      0.0000 
     20 H          73.7601   16.6908   54.8273 H         1 5HD816      0.0000 
     21 H          66.7099   17.8016   48.4779 H         1 5HD816      0.0000 
     22 H          65.8920   16.9735   49.8141 H         1 5HD816      0.0000 
     23 H          67.0182   18.6576   51.3653 H         1 5HD816      0.0000 
     24 H          68.0004   19.1395   49.9713 H         1 5HD816      0.0000 
     25 H          68.5573   16.6044   49.7510 H         1 5HD816      0.0000 
     26 H          67.9333   16.4741   51.4044 H         1 5HD816      0.0000 
     27 H          69.6558   17.7024   52.3309 H         1 5HD816      0.0000 
     28 H          69.8540   18.7124   50.8885 H         1 5HD816      0.0000 
     29 H          70.9466   15.9235   51.3860 H         1 5HD816      0.0000 
     30 H          70.4977   17.3872   48.7903 H         1 5HD816      0.0000 
     31 H          70.3268   15.6610   49.1520 H         1 5HD816      0.0000 
     32 H          72.7116   15.3346   49.1341 H         1 5HD816      0.0000 
     33 H          73.0137   17.0795   49.0693 H         1 5HD816      0.0000 
     34 H          73.1141   17.0183   51.1156 H         1 5HD816      0.0000 
     35 H          72.3327   18.5367   50.6425 H         1 5HD816      0.0000 
     36 H          65.8994   19.5434   50.1024 H         1 5HD816      0.0000 
     37 H          72.8306   16.9815   46.9883 H         1 5HD816      0.0000 
     38 H          75.8570   16.3958   52.9958 H         1 5HD816      0.0000 
@<TRIPOS>BOND
     1    2    1 1    
     2   13    1 1    
     3   15    1 1    
     4   16    1 1    
     5    3    2 1    
     6   17    2 1    
     7   18    2 1    
     8   14    3 1    
     9   19    3 1    
    10   20    3 1    
    11    5    4 1    
    12   36    4 1    
    13    6    5 1    
    14   21    5 1    
    15   22    5 1    
    16    7    6 1    
    17   23    6 1    
    18   24    6 1    
    19    8    7 1    
    20   25    7 1    
    21   26    7 1    
    22    9    8 1    
    23   27    8 1    
    24   28    8 1    
    25   10    9 1    
    26   13    9 1    
    27   29    9 1    
    28   11   10 1    
    29   30   10 1    
    30   31   10 1    
    31   12   11 1    
    32   32   11 1    
    33   33   11 1    
    34   37   12 1    
    35   34   13 1    
    36   35   13 1    
    37   38   14 1    
@<TRIPOS>SUBSTRUCTURE
     1 5HD816      1 GROUP   
@<TRIPOS>SET

