#    Name: 3mz9_BHN_1_INTS_M
#    Modification time : Tue Mar 25 00:19:56 2014

@<TRIPOS>MOLECULE
3mz9_BHN_1_INTS_M
   67     0    12     0     0
SMALL
NO_CHARGES


@<TRIPOS>ATOM
      1 Zn          2.3760   -3.3970   34.4505 Zn        3 ZIC7        0.0000 
      2 Zn          2.5790   -2.5700   34.4100 Zn       11 ZIL7        0.0000 
      3 Zn          2.1730   -4.2240   34.4910 Zn        7 ZIP7        0.0000 
      4 CA          3.5045   -3.5105   30.4940 C.3       4 GLC5        0.0000 
      5 CA          4.0640   -3.7180   32.1470 C.3      12 GLL5        0.0000 
      6 CA          2.9450   -3.3030   28.8410 C.3       8 GLP5        0.0000 
      7 CA          6.2780   -4.0750   32.0040 C.3       4 GLC5        0.0000 
      8 CA          8.4920   -4.4320   31.8610 C.3       8 GLP5        0.0000 
      9 Zn          2.9880   -4.4745   33.8330 Zn        3 ZIC7        0.0000 
     10 Zn          3.8030   -4.7250   33.1750 Zn       11 ZIL7        0.0000 
     11 CA          4.3465   -7.2860   31.6260 C.3       4 GLC5        0.0000 
     12 CA          3.4690   -5.9160   32.3900 C.3      12 GLL5        0.0000 
     13 CA          5.2240   -8.6560   30.8620 C.3       8 GLP5        0.0000 
     14 CA          3.3165   -5.7910   30.5330 C.3       4 GLC5        0.0000 
     15 CA          3.1640   -5.6660   28.6760 C.3       8 GLP5        0.0000 
     16 CA          3.7880   -8.1420   33.1900 C.3       4 GLC5        0.0000 
     17 CA          2.6670   -6.9120   33.2220 C.3      12 GLL5        0.0000 
     18 CA          4.9090   -9.3720   33.1580 C.3       8 GLP5        0.0000 
     19 Zn          1.8945   -5.2240   34.2345 Zn        3 ZIC7        0.0000 
     20 Zn          1.6160   -6.2240   33.9780 Zn       11 ZIL7        0.0000 
     21 CA          2.3455   -7.4700   36.5700 C.3       4 GLC5        0.0000 
     22 CA          1.3470   -7.1270   35.1140 C.3      12 GLL5        0.0000 
     23 CA          3.3440   -7.8130   38.0260 C.3       8 GLP5        0.0000 
     24 CA          2.1800   -8.8390   34.0705 C.3       4 GLC5        0.0000 
     25 CA          3.0130  -10.5510   33.0270 C.3       8 GLP5        0.0000 
     26 Zn          1.6015   -4.2655   35.1200 Zn        3 ZIC7        0.0000 
     27 Zn          1.0300   -4.3070   35.7490 Zn       11 ZIL7        0.0000 
     28 CA          6.1595   -3.6435   35.2095 C.3       4 GLC5        0.0000 
     29 CA          5.0960   -4.9500   33.8550 C.3      12 GLL5        0.0000 
     30 CA          7.2230   -2.3370   36.5640 C.3       8 GLP5        0.0000 
     31 CA          5.9415   -6.4940   33.2430 C.3       4 GLC5        0.0000 
     32 CA          6.7870   -8.0380   32.6310 C.3       8 GLP5        0.0000 
     33 CA          6.7940   -4.6910   32.8580 C.3       4 GLC5        0.0000 
     34 NZ          5.6385   -5.4165   37.4305 N.4       2 LYC4        0.0000 
     35 NZ          5.9120   -5.4710   35.9870 N.4      10 LYL4        0.0000 
     36 NZ          4.3820   -4.6310   39.3970 N.4       6 LYP4        0.0000 
     37 N           5.6385   -5.4165   37.4305 N.am      1 SEC2        0.0000 
     38 N           5.9120   -5.4710   35.9870 N.am      9 SEL2        0.0000 
     39 N           5.3650   -5.3620   38.8740 N.am      5 SEP2        0.0000 
     40 NZ          3.5885   -4.5965   37.2180 N.4       2 LYC4        0.0000 
     41 NZ          3.7560   -5.0060   35.8430 N.4      10 LYL4        0.0000 
     42 Zn          2.9645   -4.6150   35.1670 Zn        3 ZIC7        0.0000 
     43 Zn          3.7560   -5.0060   35.8430 Zn       11 ZIL7        0.0000 
     44 N           4.5605   -5.1840   37.3585 N.am      1 SEC2        0.0000 
     45 N           3.7560   -5.0060   35.8430 N.am      9 SEL2        0.0000 
     46 N           3.5885   -4.5965   37.2180 N.am      1 SEC2        0.0000 
     47 N           3.4210   -4.1870   38.5930 N.am      5 SEP2        0.0000 
     48 Zn          1.4385   -4.0675   33.6265 Zn        3 ZIC7        0.0000 
     49 Zn          0.7040   -3.9110   32.7620 Zn       11 ZIL7        0.0000 
     50 CA          5.7165   -1.0112   30.5663 C.3       4 GLC5        0.0000 
     51 CA          5.3430   -1.6250   32.1980 C.3      12 GLL5        0.0000 
     52 CA          5.9470   -1.0340   28.6930 C.3       8 GLP5        0.0000 
     53 CA          6.1424    0.4405   34.3509 C.3       4 GLC5        0.0000 
     54 CA          3.8610   -0.5750   34.3220 C.3      12 GLL5        0.0000 
     55 CA          7.7240    1.2150   34.9340 C.3       8 GLP5        0.0000 
     56 CA          4.8466   -1.2946   35.5620 C.3       4 GLC5        0.0000 
     57 CA          4.8920    0.1660   33.7460 C.3      12 GLL5        0.0000 
     58 CA          5.7210   -1.5720   37.1930 C.3       8 GLP5        0.0000 
     59 CA          0.5793   -7.2605   37.9360 C.3       4 GLC5        0.0000 
     60 CA          0.2790   -6.5430   36.0360 C.3      12 GLL5        0.0000 
     61 CA          1.3250   -7.5280   39.5430 C.3       8 GLP5        0.0000 
     62 CA         -0.1738   -6.9153   38.5770 C.3       4 GLC5        0.0000 
     63 CA         -1.6160   -6.9840   37.4760 C.3      12 GLL5        0.0000 
     64 CA          0.4952   -6.2410   38.1447 C.3       4 GLC5        0.0000 
     65 CA         -0.8310   -4.7210   37.1750 C.3      12 GLL5        0.0000 
     66 CA         -2.1219   -5.6849   39.1395 C.3       4 GLC5        0.0000 
     67 CA         -2.9920   -5.8580   40.8860 C.3       8 GLP5        0.0000 
@<TRIPOS>BOND
@<TRIPOS>SUBSTRUCTURE
     1 SEC2       37 GROUP        1 X    SEC  0     ROOT SEC X 2
     2 LYC4       34 GROUP        1 X    LYC  0     **** LYC X 4
     3 ZIC7        1 GROUP        1 X    ZIC  0     **** ZIC X 5
     4 GLC5        4 GROUP        1 X    GLC  0     **** GLC X 6
     5 SEP2       39 GROUP        1 Y    SEP  0     ROOT SEP Y 9
     6 LYP4       36 GROUP        1 Y    LYP  0     **** LYP Y 11
     7 ZIP7        3 GROUP        1 Y    ZIP  0     **** ZIP Y 12
     8 GLP5        6 GROUP        1 Y    GLP  0     **** GLP Y 13
     9 SEL2       38 GROUP        1 Z    SEL  0     ROOT SEL Z 16
    10 LYL4       35 GROUP        1 Z    LYL  0     **** LYL Z 18
    11 ZIL7        2 GROUP        1 Z    ZIL  0     **** ZIL Z 19
    12 GLL5        5 GROUP        1 Z    GLL  0     **** GLL Z 20
@<TRIPOS>SET

