#    Name: 3mz9_BHN_1_ligand
#    Modification time : Tue Mar 25 00:19:56 2014

@<TRIPOS>MOLECULE
3mz9_BHN_1_ligand
   48    49     1     0     0
SMALL
NO_CHARGES


@<TRIPOS>ATOM
      1 C1          4.3080   -2.3620   32.7610 C.ar      1 BHN504      0.0000 
      2 C2          5.3430   -1.6250   32.1980 C.ar      1 BHN504      0.0000 
      3 C3          5.6290   -0.3520   32.6810 C.ar      1 BHN504      0.0000 
      4 C4          4.8920    0.1660   33.7460 C.ar      1 BHN504      0.0000 
      5 C5          3.8610   -0.5750   34.3220 C.ar      1 BHN504      0.0000 
      6 C6          3.5680   -1.8300   33.8280 C.ar      1 BHN504      0.0000 
      7 O6          2.5790   -2.5700   34.4100 O.3       1 BHN504      0.0000 
      8 C7          4.0640   -3.7180   32.1470 C.3       1 BHN504      0.0000 
      9 N8          3.8030   -4.7250   33.1750 N.3       1 BHN504      0.0000 
     10 C9          3.4690   -5.9160   32.3900 C.3       1 BHN504      0.0000 
     11 C10         2.6670   -6.9120   33.2220 C.3       1 BHN504      0.0000 
     12 N11         1.6160   -6.2240   33.9780 N.3       1 BHN504      0.0000 
     13 C12         1.3470   -7.1270   35.1140 C.3       1 BHN504      0.0000 
     14 C13         0.2790   -6.5430   36.0360 C.ar      1 BHN504      0.0000 
     15 C14        -0.6120   -7.4430   36.6220 C.ar      1 BHN504      0.0000 
     16 C15        -1.6160   -6.9840   37.4760 C.ar      1 BHN504      0.0000 
     17 C16        -1.7290   -5.6210   37.7460 C.ar      1 BHN504      0.0000 
     18 C17        -0.8310   -4.7210   37.1750 C.ar      1 BHN504      0.0000 
     19 C18         0.1620   -5.1870   36.3180 C.ar      1 BHN504      0.0000 
     20 O18         1.0300   -4.3070   35.7490 O.3       1 BHN504      0.0000 
     21 C19         5.0960   -4.9500   33.8550 C.3       1 BHN504      0.0000 
     22 C20         4.8920   -5.1660   35.3580 C.2       1 BHN504      0.0000 
     23 O20         5.9120   -5.4710   35.9870 O.co2     1 BHN504      0.0000 
     24 C21         0.4140   -6.2770   33.1190 C.3       1 BHN504      0.0000 
     25 O21         3.7560   -5.0060   35.8430 O.co2     1 BHN504      0.0000 
     26 C22         0.1840   -4.9740   32.3530 C.2       1 BHN504      0.0000 
     27 O22        -0.5290   -5.0840   31.3440 O.co2     1 BHN504      0.0000 
     28 O23         0.7040   -3.9110   32.7620 O.co2     1 BHN504      0.0000 
     29 H           5.8960   -2.0186   31.4270 H         1 BHN504      0.0000 
     30 H           6.3786    0.2048   32.2567 H         1 BHN504      0.0000 
     31 H           5.1118    1.1052   34.1103 H         1 BHN504      0.0000 
     32 H           3.3279   -0.1848   35.1069 H         1 BHN504      0.0000 
     33 H           4.9446   -3.9971   31.5500 H         1 BHN504      0.0000 
     34 H           3.2109   -3.6429   31.4568 H         1 BHN504      0.0000 
     35 H           4.3794   -6.4163   32.0377 H         1 BHN504      0.0000 
     36 H           2.8739   -5.6457   31.5090 H         1 BHN504      0.0000 
     37 H           3.3556   -7.4294   33.8984 H         1 BHN504      0.0000 
     38 H           2.2339   -7.6563   32.5455 H         1 BHN504      0.0000 
     39 H           2.2588   -7.2887   35.6992 H         1 BHN504      0.0000 
     40 H           0.9990   -8.1016   34.7547 H         1 BHN504      0.0000 
     41 H          -0.5286   -8.4488   36.4238 H         1 BHN504      0.0000 
     42 H          -2.2695   -7.6492   37.9040 H         1 BHN504      0.0000 
     43 H          -2.4739   -5.2803   38.3656 H         1 BHN504      0.0000 
     44 H          -0.9021   -3.7199   37.3858 H         1 BHN504      0.0000 
     45 H           5.7567   -4.0888   33.7172 H         1 BHN504      0.0000 
     46 H           5.5965   -5.8324   33.4449 H         1 BHN504      0.0000 
     47 H          -0.4810   -6.4822   33.7274 H         1 BHN504      0.0000 
     48 H           0.5033   -7.0960   32.3878 H         1 BHN504      0.0000 
@<TRIPOS>BOND
     1    2    1 ar   
     2    6    1 ar   
     3    8    1 1    
     4    3    2 ar   
     5   29    2 1    
     6    4    3 ar   
     7   30    3 1    
     8    5    4 ar   
     9   31    4 1    
    10    6    5 ar   
    11   32    5 1    
    12    7    6 1    
    13    9    8 1    
    14   33    8 1    
    15   34    8 1    
    16   10    9 1    
    17   21    9 1    
    18   11   10 1    
    19   35   10 1    
    20   36   10 1    
    21   12   11 1    
    22   37   11 1    
    23   38   11 1    
    24   13   12 1    
    25   24   12 1    
    26   14   13 1    
    27   39   13 1    
    28   40   13 1    
    29   15   14 ar   
    30   19   14 ar   
    31   16   15 ar   
    32   41   15 1    
    33   17   16 ar   
    34   42   16 1    
    35   18   17 ar   
    36   43   17 1    
    37   19   18 ar   
    38   44   18 1    
    39   20   19 1    
    40   22   21 1    
    41   45   21 1    
    42   46   21 1    
    43   23   22 ar   
    44   25   22 ar   
    45   26   24 1    
    46   47   24 1    
    47   48   24 1    
    48   27   26 ar   
    49   28   26 ar   
@<TRIPOS>SUBSTRUCTURE
     1 BHN504      1 GROUP   
@<TRIPOS>SET

