#    Name: 3lbd_REA_1_INTS_M
#    Modification time : Mon Mar 24 21:19:48 2014

@<TRIPOS>MOLECULE
3lbd_REA_1_INTS_M
   98     0     9     0     0
SMALL
NO_CHARGES


@<TRIPOS>ATOM
      1 CA         43.9070   17.4890   79.5310 C.3       3 GLC5        0.0000 
      2 CA         44.7550   16.0250   80.6630 C.3       9 GLL5        0.0000 
      3 CA         43.0590   18.9530   78.3990 C.3       6 GLP5        0.0000 
      4 CA         46.2280   16.8785   79.5750 C.3       3 GLC5        0.0000 
      5 CA         47.7010   17.7320   78.4870 C.3       6 GLP5        0.0000 
      6 CA         44.3390   18.1135   80.4150 C.3       3 GLC5        0.0000 
      7 CA         44.4620   16.5960   82.0150 C.3       9 GLL5        0.0000 
      8 CA         44.2160   19.6310   78.8150 C.3       6 GLP5        0.0000 
      9 CA         45.6060   17.7780   82.7750 C.3       3 GLC5        0.0000 
     10 CA         46.7500   18.9600   83.5350 C.3       6 GLP5        0.0000 
     11 CA         41.4345   14.9675   85.7450 C.3       3 GLC5        0.0000 
     12 CA         40.7350   14.2970   83.7710 C.3       9 GLL5        0.0000 
     13 CA         42.1340   15.6380   87.7190 C.3       6 GLP5        0.0000 
     14 CA         38.3380   16.0025   83.2810 C.3       3 GLC5        0.0000 
     15 CA         38.4090   15.2850   85.3610 C.3       9 GLL5        0.0000 
     16 CA         38.2670   16.7200   81.2010 C.3       6 GLP5        0.0000 
     17 CA         36.0655   16.1860   84.4590 C.3       3 GLC5        0.0000 
     18 CA         37.3180   15.4760   86.1320 C.3       9 GLL5        0.0000 
     19 CA         34.8130   16.8960   82.7860 C.3       6 GLP5        0.0000 
     20 CA         36.5170   17.1745   88.9725 C.3       3 GLC5        0.0000 
     21 CA         35.5770   16.7340   87.1920 C.3       9 GLL5        0.0000 
     22 CA         37.4570   17.6150   90.7530 C.3       6 GLP5        0.0000 
     23 CA         43.8650   12.1940   83.7240 C.3       3 GLC5        0.0000 
     24 CA         43.9430   12.3900   81.6550 C.3       9 GLL5        0.0000 
     25 CA         43.7870   11.9980   85.7930 C.3       6 GLP5        0.0000 
     26 CA         44.6710   10.6590   81.5405 C.3       3 GLC5        0.0000 
     27 CA         45.3990    8.9280   81.4260 C.3       6 GLP5        0.0000 
     28 CA         41.0310   15.0265   80.4160 C.3       3 GLC5        0.0000 
     29 CA         42.4910   13.6750   80.0110 C.3       9 GLL5        0.0000 
     30 CA         39.5710   16.3780   80.8210 C.3       6 GLP5        0.0000 
     31 CA         40.7795   12.3860   79.8530 C.3       3 GLC5        0.0000 
     32 CA         39.0680   11.0970   79.6950 C.3       6 GLP5        0.0000 
     33 CA         43.5445   14.9210   78.4710 C.3       3 GLC5        0.0000 
     34 CA         44.5980   16.1670   76.9310 C.3       6 GLP5        0.0000 
     35 CA         41.1670   16.5730   82.3335 C.3       3 GLC5        0.0000 
     36 CA         42.7630   16.7680   83.8460 C.3       9 GLL5        0.0000 
     37 CA         41.7860   18.1405   84.3295 C.3       3 GLC5        0.0000 
     38 CA         40.8090   19.5130   84.8130 C.3       6 GLP5        0.0000 
     39 CA         42.4485   16.2030   85.7825 C.3       3 GLC5        0.0000 
     40 CA         43.4965   18.7365   83.6550 C.3       3 GLC5        0.0000 
     41 CA         44.2300   20.7050   83.4640 C.3       6 GLP5        0.0000 
     42 CA         40.2830   12.8355   86.2870 C.3       3 GLC5        0.0000 
     43 CA         40.0350   11.8970   84.3040 C.3       9 GLL5        0.0000 
     44 CA         40.5310   13.7740   88.2700 C.3       6 GLP5        0.0000 
     45 CA         40.0605   10.2140   84.4395 C.3       3 GLC5        0.0000 
     46 CA         40.0860    8.5310   84.5750 C.3       6 GLP5        0.0000 
     47 CA         38.0575   11.4170   84.6760 C.3       3 GLC5        0.0000 
     48 CA         36.0800   10.9370   85.0480 C.3       6 GLP5        0.0000 
     49 CA         39.4165   11.7080   82.6515 C.3       3 GLC5        0.0000 
     50 CA         38.7980   11.5190   80.9990 C.3       6 GLP5        0.0000 
     51 CA         36.6265   19.9260   85.1965 C.3       3 GLC5        0.0000 
     52 CA         37.2930   18.0370   85.8200 C.3       9 GLL5        0.0000 
     53 CA         35.9600   21.8150   84.5730 C.3       6 GLP5        0.0000 
     54 CA         38.6195   19.0825   85.8540 C.3       3 GLC5        0.0000 
     55 CA         39.9460   20.1280   85.8880 C.3       6 GLP5        0.0000 
     56 NZ         32.3300   16.9010   88.5590 N.4       2 LYC4        0.0000 
     57 NZ         33.7180   17.5040   88.3710 N.4       8 LYL4        0.0000 
     58 NZ         30.2300   16.3600   89.8720 N.4       5 LYP4        0.0000 
     59 N          32.3300   16.9010   88.5590 N.am      1 SEC2        0.0000 
     60 N          33.7180   17.5040   88.3710 N.am      7 SEL2        0.0000 
     61 N          30.9420   16.2980   88.7470 N.am      4 SEP2        0.0000 
     62 N          32.6710   18.4260   88.0175 N.am      1 SEC2        0.0000 
     63 N          31.6240   19.3480   87.6640 N.am      4 SEP2        0.0000 
     64 N          33.1380   18.3080   89.4585 N.am      1 SEC2        0.0000 
     65 N          32.5580   19.1120   90.5460 N.am      4 SEP2        0.0000 
     66 N          33.2100   19.1615   87.4475 N.am      1 SEC2        0.0000 
     67 N          34.7960   18.9750   87.2310 N.am      7 SEL2        0.0000 
     68 CA         46.7025   14.6300   80.2912 C.3       3 GLC5        0.0000 
     69 CA         48.6230   13.9880   79.9220 C.3       6 GLP5        0.0000 
     70 CA         44.6900   15.7195   78.7957 C.3       3 GLC5        0.0000 
     71 CA         44.8090   14.5190   80.6580 C.3       9 GLL5        0.0000 
     72 CA         41.3342   15.8128   81.6860 C.3       3 GLC5        0.0000 
     73 CA         42.8830   14.6150   82.3740 C.3       9 GLL5        0.0000 
     74 CA         44.4483   16.0215   84.8040 C.3       3 GLC5        0.0000 
     75 CA         43.3120   15.8800   82.7280 C.3       9 GLL5        0.0000 
     76 CA         45.8590   15.7190   86.3210 C.3       6 GLP5        0.0000 
     77 CA         43.0632   13.1190   84.2550 C.3       3 GLC5        0.0000 
     78 CA         40.4183   15.2295   82.1182 C.3       3 GLC5        0.0000 
     79 CA         41.7960   13.8650   83.0600 C.3       9 GLL5        0.0000 
     80 CA         39.6767   13.3875   82.3187 C.3       3 GLC5        0.0000 
     81 CA         38.0880   12.6940   81.2220 C.3       6 GLP5        0.0000 
     82 CA         37.5068   13.0105   85.0905 C.3       3 GLC5        0.0000 
     83 CA         38.7770   13.8970   85.1470 C.3       9 GLL5        0.0000 
     84 CA         35.7190   12.3680   85.3940 C.3       6 GLP5        0.0000 
     85 CA         38.6913   13.1735   83.0045 C.3       3 GLC5        0.0000 
     86 CA         39.6914   14.1215   86.6720 C.3       3 GLC5        0.0000 
     87 CA         39.8120   13.4090   84.4270 C.3       9 GLL5        0.0000 
     88 CA         36.7913   13.8742   85.5703 C.3       3 GLC5        0.0000 
     89 CA         38.5058   16.1093   87.6080 C.3       3 GLC5        0.0000 
     90 CA         40.0050   16.1020   88.9390 C.3       6 GLP5        0.0000 
     91 CA         37.5335   18.2480   87.9910 C.3       3 GLC5        0.0000 
     92 CA         36.6950   16.7570   86.4220 C.3       9 GLL5        0.0000 
     93 CA         38.0730   19.0990   89.8610 C.3       6 GLP5        0.0000 
     94 CA         34.9405   15.3883   85.9280 C.3       3 GLC5        0.0000 
     95 CA         33.7450   14.0310   85.0490 C.3       6 GLP5        0.0000 
     96 CA         41.9706   12.4365   84.9973 C.3       3 GLC5        0.0000 
     97 CA         35.4577   17.5466   85.0228 C.3       3 GLC5        0.0000 
     98 CA         34.2010   17.7020   83.7320 C.3       6 GLP5        0.0000 
@<TRIPOS>BOND
@<TRIPOS>SUBSTRUCTURE
     1 SEC2       59 GROUP        1 X    SEC  0     ROOT SEC X 2
     2 LYC4       56 GROUP        1 X    LYC  0     **** LYC X 4
     3 GLC5        1 GROUP        1 X    GLC  0     **** GLC X 6
     4 SEP2       61 GROUP        1 Y    SEP  0     ROOT SEP Y 9
     5 LYP4       58 GROUP        1 Y    LYP  0     **** LYP Y 11
     6 GLP5        3 GROUP        1 Y    GLP  0     **** GLP Y 13
     7 SEL2       60 GROUP        1 Z    SEL  0     ROOT SEL Z 16
     8 LYL4       57 GROUP        1 Z    LYL  0     **** LYL Z 18
     9 GLL5        2 GROUP        1 Z    GLL  0     **** GLL Z 20
@<TRIPOS>SET

