#    Name: 3lbd_REA_1_ligand
#    Modification time : Mon Mar 24 21:19:48 2014

@<TRIPOS>MOLECULE
3lbd_REA_1_ligand
   49    49     1     0     0
SMALL
NO_CHARGES


@<TRIPOS>ATOM
      1 C1         43.5280   13.7960   81.1740 C.3       1 REA424      0.0000 
      2 C2         44.8090   14.5190   80.6580 C.3       1 REA424      0.0000 
      3 C3         44.7550   16.0250   80.6630 C.3       1 REA424      0.0000 
      4 C4         44.4620   16.5960   82.0150 C.3       1 REA424      0.0000 
      5 C5         43.3120   15.8800   82.7280 C.2       1 REA424      0.0000 
      6 C6         42.8830   14.6150   82.3740 C.2       1 REA424      0.0000 
      7 C7         41.7960   13.8650   83.0600 C.2       1 REA424      0.0000 
      8 C8         40.7350   14.2970   83.7710 C.2       1 REA424      0.0000 
      9 C9         39.8120   13.4090   84.4270 C.2       1 REA424      0.0000 
     10 C10        38.7770   13.8970   85.1470 C.2       1 REA424      0.0000 
     11 C11        38.4090   15.2850   85.3610 C.2       1 REA424      0.0000 
     12 C12        37.3180   15.4760   86.1320 C.2       1 REA424      0.0000 
     13 C13        36.6950   16.7570   86.4220 C.2       1 REA424      0.0000 
     14 C14        35.5770   16.7340   87.1920 C.2       1 REA424      0.0000 
     15 C15        34.6610   17.8050   87.6290 C.2       1 REA424      0.0000 
     16 C16        43.9430   12.3900   81.6550 C.3       1 REA424      0.0000 
     17 C17        42.4910   13.6750   80.0110 C.3       1 REA424      0.0000 
     18 C18        42.7630   16.7680   83.8460 C.3       1 REA424      0.0000 
     19 C19        40.0350   11.8970   84.3040 C.3       1 REA424      0.0000 
     20 C20        37.2930   18.0370   85.8200 C.3       1 REA424      0.0000 
     21 O1         33.7180   17.5040   88.3710 O.co2     1 REA424      0.0000 
     22 O2         34.7960   18.9750   87.2310 O.co2     1 REA424      0.0000 
     23 H          45.0091   14.1558   79.6294 H         1 REA424      0.0000 
     24 H          45.6624   14.1737   81.2765 H         1 REA424      0.0000 
     25 H          43.9831   16.3595   79.9481 H         1 REA424      0.0000 
     26 H          45.7191   16.4206   80.2985 H         1 REA424      0.0000 
     27 H          44.2046   17.6624   81.9221 H         1 REA424      0.0000 
     28 H          45.3593   16.5322   82.6497 H         1 REA424      0.0000 
     29 H          41.9211   12.7774   82.9393 H         1 REA424      0.0000 
     30 H          40.5404   15.3243   83.8733 H         1 REA424      0.0000 
     31 H          38.1177   13.1923   85.6408 H         1 REA424      0.0000 
     32 H          38.9531   16.0044   84.9482 H         1 REA424      0.0000 
     33 H          36.8407   14.6372   86.5876 H         1 REA424      0.0000 
     34 H          35.2625   15.7468   87.5831 H         1 REA424      0.0000 
     35 H          44.3495   11.8503   80.9178 H         1 REA424      0.0000 
     36 H          44.6171   12.4337   82.3924 H         1 REA424      0.0000 
     37 H          43.1621   11.8707   82.0021 H         1 REA424      0.0000 
     38 H          42.8577   13.1560   79.2389 H         1 REA424      0.0000 
     39 H          41.6553   13.2114   80.3053 H         1 REA424      0.0000 
     40 H          42.2207   14.5714   79.6597 H         1 REA424      0.0000 
     41 H          43.4624   16.9813   84.5282 H         1 REA424      0.0000 
     42 H          42.4214   17.6395   83.4942 H         1 REA424      0.0000 
     43 H          42.0054   16.3301   84.3300 H         1 REA424      0.0000 
     44 H          40.9204   11.6206   84.6776 H         1 REA424      0.0000 
     45 H          39.3350   11.3773   84.7938 H         1 REA424      0.0000 
     46 H          40.0116   11.5944   83.3512 H         1 REA424      0.0000 
     47 H          38.2377   18.1799   86.1150 H         1 REA424      0.0000 
     48 H          37.2990   18.0097   84.8204 H         1 REA424      0.0000 
     49 H          36.7761   18.8501   86.0879 H         1 REA424      0.0000 
@<TRIPOS>BOND
     1    2    1 1    
     2    6    1 1    
     3   16    1 1    
     4   17    1 1    
     5    3    2 1    
     6   23    2 1    
     7   24    2 1    
     8    4    3 1    
     9   25    3 1    
    10   26    3 1    
    11    5    4 1    
    12   27    4 1    
    13   28    4 1    
    14    6    5 2    
    15   18    5 1    
    16    7    6 1    
    17    8    7 2    
    18   29    7 1    
    19    9    8 1    
    20   30    8 1    
    21   10    9 2    
    22   19    9 1    
    23   11   10 1    
    24   31   10 1    
    25   12   11 2    
    26   32   11 1    
    27   13   12 1    
    28   33   12 1    
    29   14   13 2    
    30   20   13 1    
    31   15   14 1    
    32   34   14 1    
    33   21   15 ar   
    34   22   15 ar   
    35   35   16 1    
    36   36   16 1    
    37   37   16 1    
    38   38   17 1    
    39   39   17 1    
    40   40   17 1    
    41   41   18 1    
    42   42   18 1    
    43   43   18 1    
    44   44   19 1    
    45   45   19 1    
    46   46   19 1    
    47   47   20 1    
    48   48   20 1    
    49   49   20 1    
@<TRIPOS>SUBSTRUCTURE
     1 REA424      1 GROUP   
@<TRIPOS>SET

