#    Name: 3fy4_FAD_13_INTS_M
#    Modification time : Tue Mar 25 06:45:47 2014

@<TRIPOS>MOLECULE
3fy4_FAD_13_INTS_M
  107     0    12     0     0
SMALL
NO_CHARGES


@<TRIPOS>ATOM
      1 NZ          6.8920   36.1945   46.7765 N.4       3 LYC4        0.0000 
      2 NZ          7.0860   36.1660   48.1620 N.4      11 LYL4        0.0000 
      3 NZ          6.6980   36.2230   45.3910 N.4       7 LYP4        0.0000 
      4 N           6.8920   36.1945   46.7765 N.am      2 SEC2        0.0000 
      5 N           7.0860   36.1660   48.1620 N.am     10 SEL2        0.0000 
      6 N           6.6980   36.2230   45.3910 N.am      6 SEP2        0.0000 
      7 N           7.0205   35.1025   51.6975 N.am      2 SEC2        0.0000 
      8 N           6.7400   36.2440   50.6280 N.am     10 SEL2        0.0000 
      9 N           7.3010   33.9610   52.7670 N.am      6 SEP2        0.0000 
     10 N           6.3045   36.3815   51.8005 N.am      2 SEC2        0.0000 
     11 N           5.8690   36.5190   52.9730 N.am      6 SEP2        0.0000 
     12 CA          5.4165   40.1515   52.0225 C.3       4 GLC5        0.0000 
     13 CA          5.3720   39.0470   50.1100 C.3      12 GLL5        0.0000 
     14 CA          5.4610   41.2560   53.9350 C.3       8 GLP5        0.0000 
     15 CA          7.3945   39.0640   50.5195 C.3       4 GLC5        0.0000 
     16 CA          9.4170   39.0810   50.9290 C.3       8 GLP5        0.0000 
     17 CA          5.3615   40.2290   47.2700 C.3       4 GLC5        0.0000 
     18 CA          3.2360   40.1480   47.4350 C.3      12 GLL5        0.0000 
     19 CA          7.4870   40.3100   47.1050 C.3       8 GLP5        0.0000 
     20 CA          2.3665   42.0330   46.6210 C.3       4 GLC5        0.0000 
     21 CA          1.4970   43.9180   45.8070 C.3       8 GLP5        0.0000 
     22 N           1.3880   38.8135   41.2325 N.am      2 SEC2        0.0000 
     23 N           2.4680   39.7100   42.2740 N.am     10 SEL2        0.0000 
     24 N           0.3080   37.9170   40.1910 N.am      6 SEP2        0.0000 
     25 CA          3.4570   41.3315   42.7530 C.3       4 GLC5        0.0000 
     26 CA          1.8770   40.6190   43.1880 C.3      12 GLL5        0.0000 
     27 CA          5.0370   42.0440   42.3180 C.3       8 GLP5        0.0000 
     28 CA          1.7270   42.3325   43.7370 C.3       4 GLC5        0.0000 
     29 CA          1.5770   44.0460   44.2860 C.3       8 GLP5        0.0000 
     30 CA          0.2635   39.9505   43.0940 C.3       4 GLC5        0.0000 
     31 CA         -1.3500   39.2820   43.0000 C.3       8 GLP5        0.0000 
     32 O          -4.3215   37.0885   46.6935 O.2       1 ALC1        0.0000 
     33 O          -3.4570   37.0430   45.5570 O.2       9 ALL1        0.0000 
     34 O          -5.1860   37.1340   47.8300 O.2       5 ALP1        0.0000 
     35 N          -5.9670   37.1555   44.8815 N.am      2 SEC2        0.0000 
     36 N          -4.9940   36.1980   44.1430 N.am     10 SEL2        0.0000 
     37 N          -6.9400   38.1130   45.6200 N.am      6 SEP2        0.0000 
     38 N          -4.3190   34.9400   41.5720 N.am      2 SEC2        0.0000 
     39 N          -3.0640   35.1470   42.3980 N.am     10 SEL2        0.0000 
     40 N          -5.5740   34.7330   40.7460 N.am      6 SEP2        0.0000 
     41 CA         -1.5425   31.1605   37.0875 C.3       4 GLC5        0.0000 
     42 CA         -1.7970   32.5770   38.3060 C.3      12 GLL5        0.0000 
     43 CA         -1.2880   29.7440   35.8690 C.3       8 GLP5        0.0000 
     44 CA         -2.6555   31.5565   39.4990 C.3       4 GLC5        0.0000 
     45 CA         -3.5140   30.5360   40.6920 C.3       8 GLP5        0.0000 
     46 CA         -3.4975   32.1460   37.8015 C.3       4 GLC5        0.0000 
     47 CA         -5.1980   31.7150   37.2970 C.3       8 GLP5        0.0000 
     48 CA          0.8380   31.5990   40.1730 C.3       4 GLC5        0.0000 
     49 CA          1.1370   33.0320   38.9860 C.3      12 GLL5        0.0000 
     50 CA          0.5390   30.1660   41.3600 C.3       8 GLP5        0.0000 
     51 CA          2.7425   32.4635   38.5865 C.3       4 GLC5        0.0000 
     52 CA          4.3480   31.8950   38.1870 C.3       8 GLP5        0.0000 
     53 CA          1.7145   33.2755   37.3315 C.3       4 GLC5        0.0000 
     54 CA          2.2920   33.5190   35.6770 C.3       8 GLP5        0.0000 
     55 CA         -0.1380   37.7085   43.1580 C.3       4 GLC5        0.0000 
     56 CA          1.0740   36.1350   43.3160 C.3      12 GLL5        0.0000 
     57 CA          3.5795   34.4040   43.2810 C.3       4 GLC5        0.0000 
     58 CA          1.9750   35.3600   44.3040 C.3      12 GLL5        0.0000 
     59 CA          5.1840   33.4480   42.2580 C.3       8 GLP5        0.0000 
     60 N           2.9975   34.0245   43.0325 N.am      2 SEC2        0.0000 
     61 N           2.0210   33.9670   43.9960 N.am     10 SEL2        0.0000 
     62 N           3.9740   34.0820   42.0690 N.am      6 SEP2        0.0000 
     63 CA          0.9510   35.6010   49.1305 C.3       4 GLC5        0.0000 
     64 CA          2.1660   34.8760   48.1430 C.3      12 GLL5        0.0000 
     65 CA         -0.2640   36.3260   50.1180 C.3       8 GLP5        0.0000 
     66 CA          1.9830   32.8770   49.0525 C.3       4 GLC5        0.0000 
     67 CA          1.8000   30.8780   49.9620 C.3       8 GLP5        0.0000 
     68 N           2.0660   33.0895   49.4205 N.am      2 SEC2        0.0000 
     69 N           3.0920   34.1640   48.9370 N.am     10 SEL2        0.0000 
     70 N           1.0400   32.0150   49.9040 N.am      6 SEP2        0.0000 
     71 N           2.8010   35.8545   52.3115 N.am      2 SEC2        0.0000 
     72 N           2.9860   35.8700   50.8970 N.am     10 SEL2        0.0000 
     73 N           2.6160   35.8390   53.7260 N.am      6 SEP2        0.0000 
     74 N           1.8635   36.4020   51.5825 N.am      2 SEC2        0.0000 
     75 N           0.7410   36.9340   52.2680 N.am      6 SEP2        0.0000 
     76 N           5.6015   33.2330   50.1915 N.am      2 SEC2        0.0000 
     77 N           4.7840   34.1180   50.7340 N.am     10 SEL2        0.0000 
     78 N           6.4190   32.3480   49.6490 N.am      6 SEP2        0.0000 
     79 N           5.3265   35.3185   51.8535 N.am      2 SEC2        0.0000 
     80 N           4.5890   33.9630   51.9445 N.am      2 SEC2        0.0000 
     81 N           4.3940   33.8080   53.1550 N.am      6 SEP2        0.0000 
     82 CA          6.1107   39.8383   48.4712 C.3       4 GLC5        0.0000 
     83 CA          4.6608   41.4087   50.1647 C.3       4 GLC5        0.0000 
     84 CA          4.5870   43.4510   50.4920 C.3       8 GLP5        0.0000 
     85 CA          1.1420   37.6985   49.4440 C.3       4 GLC5        0.0000 
     86 CA          2.9400   38.7180   49.3240 C.3      12 GLL5        0.0000 
     87 CA          2.2576   40.3810   50.3526 C.3       4 GLC5        0.0000 
     88 CA          2.1560   39.4240   48.2160 C.3      12 GLL5        0.0000 
     89 CA          1.6780   41.4490   51.8750 C.3       8 GLP5        0.0000 
     90 CA          4.1867   40.6226   43.2519 C.3       4 GLC5        0.0000 
     91 CA          3.7220   38.7320   44.0790 C.3      12 GLL5        0.0000 
     92 CA         -1.2138   32.8593   42.2032 C.3       4 GLC5        0.0000 
     93 CA         -2.0430   34.6390   41.5650 C.3      12 GLL5        0.0000 
     94 CA         -0.2130   31.4530   43.4290 C.3       8 GLP5        0.0000 
     95 CA         -3.5537   35.9153   40.7597 C.3       4 GLC5        0.0000 
     96 CA         -4.8930   37.5650   40.5420 C.3       8 GLP5        0.0000 
     97 CA         -1.4483   35.4308   39.7048 C.3       4 GLC5        0.0000 
     98 CA         -0.6820   36.5960   38.4320 C.3       8 GLP5        0.0000 
     99 CA         -0.0700   31.8185   40.5305 C.3       4 GLC5        0.0000 
    100 CA         -1.3690   33.3610   39.5390 C.3      12 GLL5        0.0000 
    101 CA         -1.1325   34.7825   38.6773 C.3       4 GLC5        0.0000 
    102 CA         -0.0540   34.9512   38.9283 C.3       4 GLC5        0.0000 
    103 CA          0.0110   33.5810   39.8630 C.3      12 GLL5        0.0000 
    104 CA         -0.1800   33.0265   42.4498 C.3       4 GLC5        0.0000 
    105 CA          0.3610   34.3330   41.0400 C.3      12 GLL5        0.0000 
    106 CA         -0.4145   35.5980   39.9513 C.3       4 GLC5        0.0000 
    107 CA         -0.6550   34.8670   41.9010 C.3      12 GLL5        0.0000 
@<TRIPOS>BOND
@<TRIPOS>SUBSTRUCTURE
     1 ALC1       32 GROUP        1 X    ALC  0     ROOT ALC X 1
     2 SEC2        4 GROUP        1 X    SEC  0     **** SEC X 2
     3 LYC4        1 GROUP        1 X    LYC  0     **** LYC X 4
     4 GLC5       12 GROUP        1 X    GLC  0     **** GLC X 6
     5 ALP1       34 GROUP        1 Y    ALP  0     ROOT ALP Y 8
     6 SEP2        6 GROUP        1 Y    SEP  0     **** SEP Y 9
     7 LYP4        3 GROUP        1 Y    LYP  0     **** LYP Y 11
     8 GLP5       14 GROUP        1 Y    GLP  0     **** GLP Y 13
     9 ALL1       33 GROUP        1 Z    ALL  0     ROOT ALL Z 15
    10 SEL2        5 GROUP        1 Z    SEL  0     **** SEL Z 16
    11 LYL4        2 GROUP        1 Z    LYL  0     **** LYL Z 18
    12 GLL5       13 GROUP        1 Z    GLL  0     **** GLL Z 20
@<TRIPOS>SET

