#    Name: 3fy4_FAD_13_ligand
#    Modification time : Tue Mar 25 06:45:47 2014

@<TRIPOS>MOLECULE
3fy4_FAD_13_ligand
   84    89     1     0     0
SMALL
NO_CHARGES


@<TRIPOS>ATOM
      1 PA          6.1910   36.6320   49.2690 P.3       1 FAD900      0.0000 
      2 O1A         7.0860   36.1660   48.1620 O.co2     1 FAD900      0.0000 
      3 O2A         6.7400   36.2440   50.6280 O.co2     1 FAD900      0.0000 
      4 O5B         6.0090   38.2670   49.1040 O.3       1 FAD900      0.0000 
      5 C5B         5.3720   39.0470   50.1100 C.3       1 FAD900      0.0000 
      6 C4B         4.0970   39.6860   49.5650 C.3       1 FAD900      0.0000 
      7 O4B         4.3530   40.2650   48.2940 O.3       1 FAD900      0.0000 
      8 C3B         2.9400   38.7180   49.3240 C.3       1 FAD900      0.0000 
      9 O3B         2.2430   38.4260   50.5030 O.3       1 FAD900      0.0000 
     10 C2B         2.1560   39.4240   48.2160 C.3       1 FAD900      0.0000 
     11 O2B         1.1940   40.3840   48.7040 O.3       1 FAD900      0.0000 
     12 C1B         3.2360   40.1480   47.4350 C.3       1 FAD900      0.0000 
     13 N9A         3.6270   39.3870   46.2240 N.pl3     1 FAD900      0.0000 
     14 C8A         4.5260   38.3280   46.1110 C.2       1 FAD900      0.0000 
     15 N7A         4.5550   37.9620   44.8040 N.2       1 FAD900      0.0000 
     16 C5A         3.7220   38.7320   44.0790 C.ar      1 FAD900      0.0000 
     17 C6A         3.3900   38.7650   42.7120 C.ar      1 FAD900      0.0000 
     18 N6A         3.9320   37.9170   41.8130 N.pl3     1 FAD900      0.0000 
     19 N1A         2.4680   39.7100   42.2740 N.ar      1 FAD900      0.0000 
     20 C2A         1.8770   40.6190   43.1880 C.ar      1 FAD900      0.0000 
     21 N3A         2.2090   40.5890   44.5570 N.ar      1 FAD900      0.0000 
     22 C4A         3.1170   39.6540   44.9760 C.ar      1 FAD900      0.0000 
     23 N1         -1.0860   36.7940   45.0840 N.2       1 FAD900      0.0000 
     24 C2         -2.1160   37.2530   45.8950 C.2       1 FAD900      0.0000 
     25 O2         -1.8120   37.8400   46.9010 O.2       1 FAD900      0.0000 
     26 N3         -3.4570   37.0430   45.5570 N.am      1 FAD900      0.0000 
     27 C4         -3.7980   36.3550   44.4010 C.2       1 FAD900      0.0000 
     28 O4         -4.9940   36.1980   44.1430 O.2       1 FAD900      0.0000 
     29 C4X        -2.7650   35.8610   43.5580 C.2       1 FAD900      0.0000 
     30 N5         -3.0640   35.1470   42.3980 N.2       1 FAD900      0.0000 
     31 C5X        -2.0430   34.6390   41.5650 C.ar      1 FAD900      0.0000 
     32 C6         -2.3860   33.8920   40.3900 C.ar      1 FAD900      0.0000 
     33 C7         -1.3690   33.3610   39.5390 C.ar      1 FAD900      0.0000 
     34 C7M        -1.7970   32.5770   38.3060 C.3       1 FAD900      0.0000 
     35 C8          0.0110   33.5810   39.8630 C.ar      1 FAD900      0.0000 
     36 C8M         1.1370   33.0320   38.9860 C.3       1 FAD900      0.0000 
     37 C9          0.3610   34.3330   41.0400 C.ar      1 FAD900      0.0000 
     38 C9A        -0.6550   34.8670   41.9010 C.ar      1 FAD900      0.0000 
     39 N10        -0.3390   35.6120   43.0760 N.pl3     1 FAD900      0.0000 
     40 C10        -1.3990   36.0890   43.9050 C.2       1 FAD900      0.0000 
     41 C1'         1.0740   36.1350   43.3160 C.3       1 FAD900      0.0000 
     42 C2'         1.9750   35.3600   44.3040 C.3       1 FAD900      0.0000 
     43 O2'         2.0210   33.9670   43.9960 O.3       1 FAD900      0.0000 
     44 C3'         1.5690   35.4960   45.7950 C.3       1 FAD900      0.0000 
     45 O3'         1.4920   36.8540   46.1890 O.3       1 FAD900      0.0000 
     46 C4'         2.5600   34.7290   46.6970 C.3       1 FAD900      0.0000 
     47 O4'         2.6650   33.3440   46.3790 O.3       1 FAD900      0.0000 
     48 C5'         2.1660   34.8760   48.1430 C.3       1 FAD900      0.0000 
     49 O5'         3.0920   34.1640   48.9370 O.3       1 FAD900      0.0000 
     50 P           3.8760   35.0500   49.9850 P.3       1 FAD900      0.0000 
     51 O1P         2.9860   35.8700   50.8970 O.co2     1 FAD900      0.0000 
     52 O2P         4.7840   34.1180   50.7340 O.co2     1 FAD900      0.0000 
     53 O3P         4.7100   36.0470   49.0210 O.3       1 FAD900      0.0000 
     54 H           6.0225   39.8573   50.4712 H         1 FAD900      0.0000 
     55 H           5.0927   38.4382   50.9827 H         1 FAD900      0.0000 
     56 H           3.7558   40.4476   50.2536 H         1 FAD900      0.0000 
     57 H           3.3967   37.8348   48.8605 H         1 FAD900      0.0000 
     58 H           1.7312   38.6875   47.5790 H         1 FAD900      0.0000 
     59 H           2.8602   41.1139   47.1570 H         1 FAD900      0.0000 
     60 H           5.0166   37.9483   46.8280 H         1 FAD900      0.0000 
     61 H           4.6009   37.2653   42.1705 H         1 FAD900      0.0000 
     62 H           3.6166   38.0157   40.8692 H         1 FAD900      0.0000 
     63 H           1.1973   41.3080   42.8431 H         1 FAD900      0.0000 
     64 H          -4.1981   37.4059   46.1778 H         1 FAD900      0.0000 
     65 H          -3.3685   33.7393   40.1612 H         1 FAD900      0.0000 
     66 H           1.3433   34.4867   41.2624 H         1 FAD900      0.0000 
     67 H           1.0098   37.1956   43.6667 H         1 FAD900      0.0000 
     68 H           1.6076   36.1919   42.3342 H         1 FAD900      0.0000 
     69 H           2.9946   35.7811   44.2225 H         1 FAD900      0.0000 
     70 H           0.5964   35.0012   45.9038 H         1 FAD900      0.0000 
     71 H           3.5404   35.2209   46.5824 H         1 FAD900      0.0000 
     72 H           1.1465   34.4921   48.2596 H         1 FAD900      0.0000 
     73 H           2.1541   35.9442   48.3865 H         1 FAD900      0.0000 
     74 H          -1.0104   32.2542   37.7796 H         1 FAD900      0.0000 
     75 H          -2.3386   31.7717   38.5474 H         1 FAD900      0.0000 
     76 H          -2.3552   33.1314   37.6887 H         1 FAD900      0.0000 
     77 H           2.0387   33.2699   39.3471 H         1 FAD900      0.0000 
     78 H           1.1023   32.0349   38.9180 H         1 FAD900      0.0000 
     79 H           1.0905   33.3912   38.0539 H         1 FAD900      0.0000 
     80 H           2.4405   37.4634   50.6886 H         1 FAD900      0.0000 
     81 H           0.9240   40.0445   49.6050 H         1 FAD900      0.0000 
     82 H           1.0919   33.6351   44.1593 H         1 FAD900      0.0000 
     83 H           0.6036   37.1700   45.8560 H         1 FAD900      0.0000 
     84 H           2.3139   33.2655   45.4459 H         1 FAD900      0.0000 
@<TRIPOS>BOND
     1    2    1 ar   
     2    3    1 ar   
     3    4    1 1    
     4   53    1 1    
     5    5    4 1    
     6    6    5 1    
     7   54    5 1    
     8   55    5 1    
     9    7    6 1    
    10    8    6 1    
    11   56    6 1    
    12   12    7 1    
    13    9    8 1    
    14   10    8 1    
    15   57    8 1    
    16   80    9 1    
    17   11   10 1    
    18   12   10 1    
    19   58   10 1    
    20   81   11 1    
    21   13   12 1    
    22   59   12 1    
    23   14   13 1    
    24   22   13 1    
    25   15   14 2    
    26   60   14 1    
    27   16   15 1    
    28   17   16 ar   
    29   22   16 ar   
    30   18   17 1    
    31   19   17 ar   
    32   61   18 1    
    33   62   18 1    
    34   20   19 ar   
    35   21   20 ar   
    36   63   20 1    
    37   22   21 ar   
    38   24   23 1    
    39   40   23 2    
    40   25   24 2    
    41   26   24 am   
    42   27   26 am   
    43   64   26 1    
    44   28   27 2    
    45   29   27 1    
    46   30   29 2    
    47   40   29 1    
    48   31   30 1    
    49   32   31 ar   
    50   38   31 ar   
    51   33   32 ar   
    52   65   32 1    
    53   34   33 1    
    54   35   33 ar   
    55   74   34 1    
    56   75   34 1    
    57   76   34 1    
    58   36   35 1    
    59   37   35 ar   
    60   77   36 1    
    61   78   36 1    
    62   79   36 1    
    63   38   37 ar   
    64   66   37 1    
    65   39   38 1    
    66   40   39 1    
    67   41   39 1    
    68   42   41 1    
    69   67   41 1    
    70   68   41 1    
    71   43   42 1    
    72   44   42 1    
    73   69   42 1    
    74   82   43 1    
    75   45   44 1    
    76   46   44 1    
    77   70   44 1    
    78   83   45 1    
    79   47   46 1    
    80   48   46 1    
    81   71   46 1    
    82   84   47 1    
    83   49   48 1    
    84   72   48 1    
    85   73   48 1    
    86   50   49 1    
    87   51   50 ar   
    88   52   50 ar   
    89   53   50 1    
@<TRIPOS>SUBSTRUCTURE
     1 FAD900      1 GROUP   
@<TRIPOS>SET

