#    Name: 4mjp_27O_1_INTS_M
#    Modification time : Tue Mar 25 12:10:36 2014

@<TRIPOS>MOLECULE
4mjp_27O_1_INTS_M
   49     0     9     0     0
SMALL
NO_CHARGES


@<TRIPOS>ATOM
      1 CA        -19.2900  -15.2785   45.9885 C.3       3 GLC5        0.0000 
      2 CA        -18.2320  -17.2160   45.5920 C.3       9 GLL5        0.0000 
      3 CA        -20.3480  -13.3410   46.3850 C.3       6 GLP5        0.0000 
      4 CA        -17.0010  -16.2730   47.0590 C.3       3 GLC5        0.0000 
      5 CA        -15.7700  -15.3300   48.5260 C.3       6 GLP5        0.0000 
      6 CA        -14.6715  -16.7655   42.0365 C.3       3 GLC5        0.0000 
      7 CA        -15.1450  -16.6420   44.1730 C.3       9 GLL5        0.0000 
      8 CA        -14.1980  -16.8890   39.9000 C.3       6 GLP5        0.0000 
      9 CA        -12.8300  -12.9560   43.1610 C.3       3 GLC5        0.0000 
     10 CA        -14.3530  -14.1360   44.0980 C.3       9 GLL5        0.0000 
     11 CA        -11.3070  -11.7760   42.2240 C.3       6 GLP5        0.0000 
     12 NZ        -23.3920  -20.5120   43.6830 N.4       2 LYC4        0.0000 
     13 NZ        -22.0920  -21.1160   44.0950 N.4       8 LYL4        0.0000 
     14 NZ        -25.6520  -19.7080   44.1720 N.4       5 LYP4        0.0000 
     15 N         -23.3920  -20.5120   43.6830 N.am      1 SEC2        0.0000 
     16 N         -22.0920  -21.1160   44.0950 N.am      7 SEL2        0.0000 
     17 N         -24.6920  -19.9080   43.2710 N.am      4 SEP2        0.0000 
     18 NZ        -23.9290  -19.3750   45.3590 N.4       2 LYC4        0.0000 
     19 NZ        -22.5380  -19.3500   45.3000 N.4       8 LYL4        0.0000 
     20 N         -23.6150  -19.6290   44.2855 N.am      1 SEC2        0.0000 
     21 N         -22.5380  -19.3500   45.3000 N.am      7 SEL2        0.0000 
     22 N         -23.9290  -19.3750   45.3590 N.am      1 SEC2        0.0000 
     23 N         -25.3200  -19.4000   45.4180 N.am      4 SEP2        0.0000 
     24 N         -22.6980  -18.0085   45.2950 N.am      1 SEC2        0.0000 
     25 N         -22.8580  -16.6670   45.2900 N.am      4 SEP2        0.0000 
     26 CA        -21.0215  -19.3100   48.7745 C.3       3 GLC5        0.0000 
     27 CA        -20.4940  -20.5190   47.0950 C.3       9 GLL5        0.0000 
     28 CA        -21.5490  -18.1010   50.4540 C.3       6 GLP5        0.0000 
     29 CA        -18.5335  -14.0895   45.5895 C.3       3 GLC5        0.0000 
     30 CA        -16.7190  -14.8380   44.7940 C.3       9 GLL5        0.0000 
     31 CA        -16.2445  -15.0840   46.6600 C.3       3 GLC5        0.0000 
     32 CA        -15.7925  -13.2737   42.3678 C.3       3 GLC5        0.0000 
     33 CA        -15.8210  -13.7390   44.2490 C.3       9 GLL5        0.0000 
     34 CA        -16.4980  -12.6100   40.5620 C.3       6 GLP5        0.0000 
     35 CA        -12.5930  -15.1938   42.8627 C.3       3 GLC5        0.0000 
     36 CA        -10.9950  -15.5150   41.4960 C.3       6 GLP5        0.0000 
     37 CA        -15.0315  -11.9642   44.2067 C.3       3 GLC5        0.0000 
     38 CA        -14.9760   -9.9910   44.2400 C.3       6 GLP5        0.0000 
     39 CA        -15.3950  -13.4012   46.0918 C.3       3 GLC5        0.0000 
     40 CA        -15.7030  -12.8650   48.0100 C.3       6 GLP5        0.0000 
     41 CA        -15.7073  -17.9515   40.8462 C.3       3 GLC5        0.0000 
     42 CA        -17.1010  -18.4690   42.2120 C.3       9 GLL5        0.0000 
     43 CA        -19.8448  -18.4417   43.0415 C.3       3 GLC5        0.0000 
     44 CA        -18.6790  -19.4630   43.8380 C.3       9 GLL5        0.0000 
     45 CA        -20.9110  -16.8850   42.6850 C.3       6 GLP5        0.0000 
     46 CA        -19.9710  -17.7141   44.0766 C.3       3 GLC5        0.0000 
     47 CA        -19.3850  -19.3600   45.1560 C.3       9 GLL5        0.0000 
     48 CA        -19.1415  -17.5068   42.8719 C.3       3 GLC5        0.0000 
     49 CA        -17.5350  -17.2100   44.3700 C.3       9 GLL5        0.0000 
@<TRIPOS>BOND
@<TRIPOS>SUBSTRUCTURE
     1 SEC2       15 GROUP        1 X    SEC  0     ROOT SEC X 2
     2 LYC4       12 GROUP        1 X    LYC  0     **** LYC X 4
     3 GLC5        1 GROUP        1 X    GLC  0     **** GLC X 6
     4 SEP2       17 GROUP        1 Y    SEP  0     ROOT SEP Y 9
     5 LYP4       14 GROUP        1 Y    LYP  0     **** LYP Y 11
     6 GLP5        3 GROUP        1 Y    GLP  0     **** GLP Y 13
     7 SEL2       16 GROUP        1 Z    SEL  0     ROOT SEL Z 16
     8 LYL4       13 GROUP        1 Z    LYL  0     **** LYL Z 18
     9 GLL5        2 GROUP        1 Z    GLL  0     **** GLL Z 20
@<TRIPOS>SET

