#    Name: 4mjp_27O_1_ligand
#    Modification time : Tue Mar 25 12:10:36 2014

@<TRIPOS>MOLECULE
4mjp_27O_1_ligand
   42    44     1     0     0
SMALL
NO_CHARGES


@<TRIPOS>ATOM
      1 C4        -19.1220  -18.2370   45.9690 C.ar      1 27O403      0.0000 
      2 C5        -18.2320  -17.2160   45.5920 C.ar      1 27O403      0.0000 
      3 C6        -17.5350  -17.2100   44.3700 C.ar      1 27O403      0.0000 
      4 C7        -16.5740  -16.1170   43.9830 C.3       1 27O403      0.0000 
      5 C8        -15.1450  -16.6420   44.1730 C.3       1 27O403      0.0000 
      6 C10       -14.3530  -14.1360   44.0980 C.3       1 27O403      0.0000 
      7 C13       -17.7510  -18.3660   43.4410 C.ar      1 27O403      0.0000 
      8 C15       -17.3320  -19.5590   41.3730 C.ar      1 27O403      0.0000 
      9 C17       -18.8780  -20.5340   42.9580 C.ar      1 27O403      0.0000 
     10 O1        -22.0920  -21.1160   44.0950 O.co2     1 27O403      0.0000 
     11 C2        -21.7020  -20.3170   44.9420 C.2       1 27O403      0.0000 
     12 O         -22.5380  -19.3500   45.3000 O.co2     1 27O403      0.0000 
     13 C1        -20.3330  -20.4470   45.5770 C.3       1 27O403      0.0000 
     14 C         -20.4940  -20.5190   47.0950 C.3       1 27O403      0.0000 
     15 C3        -19.3850  -19.3600   45.1560 C.ar      1 27O403      0.0000 
     16 C18       -18.6790  -19.4630   43.8380 C.ar      1 27O403      0.0000 
     17 C16       -18.2130  -20.5750   41.7340 C.ar      1 27O403      0.0000 
     18 C14       -17.1010  -18.4690   42.2120 C.ar      1 27O403      0.0000 
     19 C12       -16.7190  -14.8380   44.7940 C.3       1 27O403      0.0000 
     20 C11       -15.8210  -13.7390   44.2490 C.3       1 27O403      0.0000 
     21 C9        -14.0290  -15.6090   44.3610 C.3       1 27O403      0.0000 
     22 H         -19.6092  -18.1633   46.8873 H         1 27O403      0.0000 
     23 H         -18.0800  -16.4195   46.2541 H         1 27O403      0.0000 
     24 H         -16.6902  -15.8852   42.9325 H         1 27O403      0.0000 
     25 H         -14.8869  -17.2861   43.2969 H         1 27O403      0.0000 
     26 H         -15.1377  -17.3342   45.0504 H         1 27O403      0.0000 
     27 H         -13.7424  -13.5109   44.7833 H         1 27O403      0.0000 
     28 H         -14.0175  -13.8771   43.0715 H         1 27O403      0.0000 
     29 H         -16.8379  -19.6127   40.4637 H         1 27O403      0.0000 
     30 H         -19.5203  -21.2945   43.2197 H         1 27O403      0.0000 
     31 H         -19.9150  -21.4196   45.2568 H         1 27O403      0.0000 
     32 H         -18.3751  -21.3646   41.0907 H         1 27O403      0.0000 
     33 H         -16.4417  -17.7309   41.9195 H         1 27O403      0.0000 
     34 H         -16.4535  -15.0387   45.8336 H         1 27O403      0.0000 
     35 H         -17.7581  -14.5054   44.7594 H         1 27O403      0.0000 
     36 H         -16.2043  -13.4157   43.2636 H         1 27O403      0.0000 
     37 H         -15.8838  -12.8587   44.9150 H         1 27O403      0.0000 
     38 H         -13.1647  -15.9020   43.7098 H         1 27O403      0.0000 
     39 H         -13.6352  -15.7025   45.4065 H         1 27O403      0.0000 
     40 H         -19.6121  -20.6067   47.5583 H         1 27O403      0.0000 
     41 H         -20.9371  -19.7005   47.4607 H         1 27O403      0.0000 
     42 H         -21.0502  -21.3023   47.3727 H         1 27O403      0.0000 
@<TRIPOS>BOND
     1    2    1 ar   
     2   15    1 ar   
     3   22    1 1    
     4    3    2 ar   
     5   23    2 1    
     6    4    3 1    
     7    7    3 ar   
     8    5    4 1    
     9   19    4 1    
    10   24    4 1    
    11   21    5 1    
    12   25    5 1    
    13   26    5 1    
    14   20    6 1    
    15   21    6 1    
    16   27    6 1    
    17   28    6 1    
    18   16    7 ar   
    19   18    7 ar   
    20   17    8 ar   
    21   18    8 ar   
    22   29    8 1    
    23   16    9 ar   
    24   17    9 ar   
    25   30    9 1    
    26   11   10 ar   
    27   12   11 ar   
    28   13   11 1    
    29   14   13 1    
    30   15   13 1    
    31   31   13 1    
    32   40   14 1    
    33   41   14 1    
    34   42   14 1    
    35   16   15 ar   
    36   32   17 1    
    37   33   18 1    
    38   20   19 1    
    39   34   19 1    
    40   35   19 1    
    41   36   20 1    
    42   37   20 1    
    43   38   21 1    
    44   39   21 1    
@<TRIPOS>SUBSTRUCTURE
     1 27O403      1 GROUP   
@<TRIPOS>SET

