#    Name: 2ozr_GG1_2_INTS_M
#    Modification time : Mon Mar 24 18:06:33 2014

@<TRIPOS>MOLECULE
2ozr_GG1_2_INTS_M
   73     0     9     0     0
SMALL
NO_CHARGES


@<TRIPOS>ATOM
      1 CA         10.1185   -1.7930    0.9620 C.3       3 GLC5        0.0000 
      2 CA          9.0080   -1.2430    2.3320 C.3       9 GLL5        0.0000 
      3 CA         11.2290   -2.3430   -0.4080 C.3       6 GLP5        0.0000 
      4 CA         10.8835   -2.5425    2.6860 C.3       3 GLC5        0.0000 
      5 CA          9.8890   -0.8090    3.3230 C.3       9 GLL5        0.0000 
      6 CA         11.8780   -4.2760    2.0490 C.3       6 GLP5        0.0000 
      7 CA          3.8930   -3.9605    9.8270 C.3       3 GLC5        0.0000 
      8 CA          5.9160   -4.3280    8.9550 C.3       9 GLL5        0.0000 
      9 CA          1.8700   -3.5930   10.6990 C.3       6 GLP5        0.0000 
     10 CA          9.8515   -2.6510    8.5645 C.3       3 GLC5        0.0000 
     11 CA          7.9660   -3.1570    9.4710 C.3       9 GLL5        0.0000 
     12 CA         11.7370   -2.1450    7.6580 C.3       6 GLP5        0.0000 
     13 NZ          6.6710   -8.7835   10.4430 N.4       2 LYC4        0.0000 
     14 NZ          7.5130   -7.6830   11.0650 N.4       8 LYL4        0.0000 
     15 NZ          5.8290   -9.8840    9.8210 N.4       5 LYP4        0.0000 
     16 NZ          6.4395   -7.7445   12.2610 N.4       2 LYC4        0.0000 
     17 NZ          5.3660   -7.8060   13.4570 N.4       5 LYP4        0.0000 
     18 N           6.6710   -8.7835   10.4430 N.am      1 SEC2        0.0000 
     19 N           7.5130   -7.6830   11.0650 N.am      7 SEL2        0.0000 
     20 N           5.8290   -9.8840    9.8210 N.am      4 SEP2        0.0000 
     21 N           6.4395   -7.7445   12.2610 N.am      1 SEC2        0.0000 
     22 N           5.3660   -7.8060   13.4570 N.am      4 SEP2        0.0000 
     23 N          10.5215   -5.9565   12.2785 N.am      1 SEC2        0.0000 
     24 N           9.1380   -6.4740   11.8800 N.am      7 SEL2        0.0000 
     25 N          11.9050   -5.4390   12.6770 N.am      4 SEP2        0.0000 
     26 N           8.4200    0.4035    7.9765 N.am      1 SEC2        0.0000 
     27 N           8.6070   -1.0480    7.2780 N.am      7 SEL2        0.0000 
     28 N           8.2330    1.8550    8.6750 N.am      4 SEP2        0.0000 
     29 CA          6.4960   -3.9760    3.9345 C.3       3 GLC5        0.0000 
     30 CA          5.1540   -2.7700    3.4230 C.3       9 GLL5        0.0000 
     31 CA          7.8380   -5.1820    4.4460 C.3       6 GLP5        0.0000 
     32 CA          5.7775   -3.1170    1.3760 C.3       3 GLC5        0.0000 
     33 CA          6.4010   -3.4640   -0.6710 C.3       6 GLP5        0.0000 
     34 CA         12.3205   -0.8975    0.8590 C.3       3 GLC5        0.0000 
     35 CA         13.4120    0.5480    2.1260 C.3       9 GLL5        0.0000 
     36 CA         13.4085    1.5710    0.1545 C.3       3 GLC5        0.0000 
     37 CA         13.4050    2.5940   -1.8170 C.3       6 GLP5        0.0000 
     38 CA         16.6615    1.8540    2.1135 C.3       3 GLC5        0.0000 
     39 CA         15.8460   -0.1270    2.2660 C.3       9 GLL5        0.0000 
     40 CA         17.4770    3.8350    1.9610 C.3       6 GLP5        0.0000 
     41 CA         13.0750   -2.7610    2.8850 C.3       3 GLC5        0.0000 
     42 CA         14.2720   -1.2460    3.7210 C.3       9 GLL5        0.0000 
     43 CA          7.3602   -1.7413    0.8045 C.3       3 GLC5        0.0000 
     44 CA          6.3400   -1.9950   -0.9010 C.3       6 GLP5        0.0000 
     45 CA         11.4047   -1.2472    1.1935 C.3       3 GLC5        0.0000 
     46 CA         11.0540   -0.3540    2.9790 C.3       9 GLL5        0.0000 
     47 CA          6.1327   -5.3740   11.7728 C.3       3 GLC5        0.0000 
     48 CA          7.5950   -5.4140   10.2970 C.3       9 GLL5        0.0000 
     49 CA          5.2970   -5.3210   13.5610 C.3       6 GLP5        0.0000 
     50 CA          5.6875   -6.1865    7.6828 C.3       3 GLC5        0.0000 
     51 CA          6.3420   -5.4400    9.6720 C.3       9 GLL5        0.0000 
     52 CA          5.2460   -7.4890    6.0520 C.3       6 GLP5        0.0000 
     53 CA          5.5705   -2.9670   10.7852 C.3       3 GLC5        0.0000 
     54 CA          4.8250   -2.1740   12.6730 C.3       6 GLP5        0.0000 
     55 CA         15.0715    1.1450    3.7787 C.3       3 GLC5        0.0000 
     56 CA         16.1700    2.1650    5.1370 C.3       6 GLP5        0.0000 
     57 CA          9.9245   -2.5896    5.3774 C.3       3 GLC5        0.0000 
     58 CA         10.8780   -4.0770    6.2530 C.3       6 GLP5        0.0000 
     59 CA          8.1567    0.8530    5.4410 C.3       3 GLC5        0.0000 
     60 CA          9.5070   -0.8760    4.6600 C.3       9 GLL5        0.0000 
     61 CA          7.4380    2.8250    6.0460 C.3       6 GLP5        0.0000 
     62 CA         13.4530   -2.4820    5.3902 C.3       3 GLC5        0.0000 
     63 CA         12.1180   -3.3400    6.7860 C.3       6 GLP5        0.0000 
     64 CA         15.3625   -3.1350    2.8053 C.3       3 GLC5        0.0000 
     65 CA         15.3040   -2.0020    4.2680 C.3       9 GLL5        0.0000 
     66 CA         15.9370   -4.6460    1.6160 C.3       6 GLP5        0.0000 
     67 CA         16.4495   -3.6647    4.9893 C.3       3 GLC5        0.0000 
     68 CA         16.9430   -5.4180    5.9420 C.3       6 GLP5        0.0000 
     69 CA         16.6069   -2.4495    1.9460 C.3       3 GLC5        0.0000 
     70 CA         16.6080   -1.8210    3.8050 C.3       9 GLL5        0.0000 
     71 CA         16.7290   -3.7360    0.7210 C.3       6 GLP5        0.0000 
     72 CA         15.9032    0.3858    4.3599 C.3       3 GLC5        0.0000 
     73 CA         16.8770   -0.8830    2.8080 C.3       9 GLL5        0.0000 
@<TRIPOS>BOND
@<TRIPOS>SUBSTRUCTURE
     1 SEC2       18 GROUP        1 X    SEC  0     ROOT SEC X 2
     2 LYC4       13 GROUP        1 X    LYC  0     **** LYC X 4
     3 GLC5        1 GROUP        1 X    GLC  0     **** GLC X 6
     4 SEP2       20 GROUP        1 Y    SEP  0     ROOT SEP Y 9
     5 LYP4       15 GROUP        1 Y    LYP  0     **** LYP Y 11
     6 GLP5        3 GROUP        1 Y    GLP  0     **** GLP Y 13
     7 SEL2       19 GROUP        1 Z    SEL  0     ROOT SEL Z 16
     8 LYL4       14 GROUP        1 Z    LYL  0     **** LYL Z 18
     9 GLL5        2 GROUP        1 Z    GLL  0     **** GLL Z 20
@<TRIPOS>SET

