#    Name: 2ozr_GG1_2_ligand
#    Modification time : Mon Mar 24 18:06:33 2014

@<TRIPOS>MOLECULE
2ozr_GG1_2_ligand
   51    54     1     0     0
SMALL
NO_CHARGES


@<TRIPOS>ATOM
      1 N1          6.1510   -2.2860    4.3880 N.am      1 GG12002     0.0000 
      2 C4          6.2080   -1.9870    8.0620 C.3       1 GG12002     0.0000 
      3 C5          7.8520   -1.4300    6.3490 C.2       1 GG12002     0.0000 
      4 C6          9.0080   -1.2430    2.3320 C.ar      1 GG12002     0.0000 
      5 C7         11.0540   -0.3540    2.9790 C.1       1 GG12002     0.0000 
      6 C8          9.8890   -0.8090    3.3230 C.ar      1 GG12002     0.0000 
      7 C10         7.5950   -5.4140   10.2970 C.ar      1 GG12002     0.0000 
      8 C13         6.3420   -5.4400    9.6720 C.ar      1 GG12002     0.0000 
      9 C15         5.9160   -4.3280    8.9550 C.ar      1 GG12002     0.0000 
     10 C17         7.9660   -3.1570    9.4710 C.ar      1 GG12002     0.0000 
     11 C20        14.5340   -0.2980    2.7150 C.ar      1 GG12002     0.0000 
     12 C21         6.7160   -3.1920    8.8400 C.ar      1 GG12002     0.0000 
     13 C22         8.2440   -1.3620    5.0120 C.ar      1 GG12002     0.0000 
     14 C24         8.0790   -6.5990   11.0960 C.2       1 GG12002     0.0000 
     15 C26        12.1070    0.0510    2.6110 C.1       1 GG12002     0.0000 
     16 O6          7.5130   -7.6830   11.0650 O.co2     1 GG12002     0.0000 
     17 O5          9.1380   -6.4740   11.8800 O.co2     1 GG12002     0.0000 
     18 C19         8.4030   -4.2650   10.1930 C.ar      1 GG12002     0.0000 
     19 N6          6.6430   -1.9210    6.6560 N.am      1 GG12002     0.0000 
     20 O2          8.6070   -1.0480    7.2780 O.2       1 GG12002     0.0000 
     21 C3          7.3610   -1.8010    4.0270 C.ar      1 GG12002     0.0000 
     22 C2          7.7530   -1.7320    2.6880 C.ar      1 GG12002     0.0000 
     23 C25         5.1540   -2.7700    3.4230 C.3       1 GG12002     0.0000 
     24 C1          5.8070   -2.3320    5.6820 C.2       1 GG12002     0.0000 
     25 O1          4.6820   -2.7820    5.9840 O.2       1 GG12002     0.0000 
     26 C23         9.5070   -0.8760    4.6600 C.ar      1 GG12002     0.0000 
     27 C11        13.4120    0.5480    2.1260 C.3       1 GG12002     0.0000 
     28 C16        15.8460   -0.1270    2.2660 C.ar      1 GG12002     0.0000 
     29 C18        16.8770   -0.8830    2.8080 C.ar      1 GG12002     0.0000 
     30 C14        14.2720   -1.2460    3.7210 C.ar      1 GG12002     0.0000 
     31 C12        15.3040   -2.0020    4.2680 C.ar      1 GG12002     0.0000 
     32 C9         16.6080   -1.8210    3.8050 C.ar      1 GG12002     0.0000 
     33 H           6.5295   -1.0671    8.6026 H         1 GG12002     0.0000 
     34 H           5.0949   -1.9863    8.1156 H         1 GG12002     0.0000 
     35 H           9.2841   -1.2018    1.3453 H         1 GG12002     0.0000 
     36 H           5.7505   -6.2701    9.7451 H         1 GG12002     0.0000 
     37 H           4.9865   -4.3418    8.4966 H         1 GG12002     0.0000 
     38 H           8.5518   -2.3210    9.3999 H         1 GG12002     0.0000 
     39 H           9.3211   -4.2509   10.6560 H         1 GG12002     0.0000 
     40 H           7.1007   -2.0490    1.9512 H         1 GG12002     0.0000 
     41 H          10.1566   -0.5664    5.3964 H         1 GG12002     0.0000 
     42 H          13.4634    0.4880    1.0389 H         1 GG12002     0.0000 
     43 H          13.5616    1.5848    2.4271 H         1 GG12002     0.0000 
     44 H          16.0456    0.5643    1.5291 H         1 GG12002     0.0000 
     45 H          17.8419   -0.7533    2.4757 H         1 GG12002     0.0000 
     46 H          13.3053   -1.3764    4.0508 H         1 GG12002     0.0000 
     47 H          15.1103   -2.6862    5.0044 H         1 GG12002     0.0000 
     48 H          17.3742   -2.3819    4.2008 H         1 GG12002     0.0000 
     49 H           5.5041   -3.5316    2.8777 H         1 GG12002     0.0000 
     50 H           4.3234   -3.0922    3.8772 H         1 GG12002     0.0000 
     51 H           4.8786   -2.0532    2.7825 H         1 GG12002     0.0000 
@<TRIPOS>BOND
     1   21    1 1    
     2   23    1 1    
     3   24    1 am   
     4   12    2 1    
     5   19    2 1    
     6   33    2 1    
     7   34    2 1    
     8   13    3 1    
     9   19    3 am   
    10   20    3 2    
    11    6    4 ar   
    12   22    4 ar   
    13   35    4 1    
    14    6    5 1    
    15   15    5 3    
    16   26    6 ar   
    17    8    7 ar   
    18   14    7 1    
    19   18    7 ar   
    20    9    8 ar   
    21   36    8 1    
    22   12    9 ar   
    23   37    9 1    
    24   12   10 ar   
    25   18   10 ar   
    26   38   10 1    
    27   27   11 1    
    28   28   11 ar   
    29   30   11 ar   
    30   21   13 ar   
    31   26   13 ar   
    32   16   14 ar   
    33   17   14 ar   
    34   27   15 1    
    35   39   18 1    
    36   24   19 am   
    37   22   21 ar   
    38   40   22 1    
    39   49   23 1    
    40   50   23 1    
    41   51   23 1    
    42   25   24 2    
    43   41   26 1    
    44   42   27 1    
    45   43   27 1    
    46   29   28 ar   
    47   44   28 1    
    48   32   29 ar   
    49   45   29 1    
    50   31   30 ar   
    51   46   30 1    
    52   32   31 ar   
    53   47   31 1    
    54   48   32 1    
@<TRIPOS>SUBSTRUCTURE
     1 GG12002     1 GROUP   
@<TRIPOS>SET

