#    Name: 3qzi_X72_1_INTS_M
#    Modification time : Tue Mar 25 10:22:54 2014

@<TRIPOS>MOLECULE
3qzi_X72_1_INTS_M
   41     0     9     0     0
SMALL
NO_CHARGES


@<TRIPOS>ATOM
      1 O         -63.5475  -11.0285   23.2805 O.2       1 ALC1        0.0000 
      2 O         -64.5620  -10.3250   24.1190 O.2       7 ALL1        0.0000 
      3 O         -62.5330  -11.7320   22.4420 O.2       4 ALP1        0.0000 
      4 O         -67.0745  -10.4675   19.6695 O.2       1 ALC1        0.0000 
      5 O         -67.1400   -9.8030   20.9890 O.2       7 ALL1        0.0000 
      6 O         -67.0090  -11.1320   18.3500 O.2       4 ALP1        0.0000 
      7 CA        -66.4595  -11.7725   25.1095 C.3       3 GLC5        0.0000 
      8 CA        -65.7820   -9.9190   24.3660 C.3       9 GLL5        0.0000 
      9 CA        -67.1370  -13.6260   25.8530 C.3       6 GLP5        0.0000 
     10 CA        -63.3985   -8.1225   24.2040 C.3       3 GLC5        0.0000 
     11 CA        -63.3840   -9.9190   24.9250 C.3       9 GLL5        0.0000 
     12 CA        -63.4130   -6.3260   23.4830 C.3       6 GLP5        0.0000 
     13 CA        -64.4520  -12.4375   28.0040 C.3       3 GLC5        0.0000 
     14 CA        -62.4810  -12.9480   27.7730 C.3       9 GLL5        0.0000 
     15 CA        -66.4230  -11.9270   28.2350 C.3       6 GLP5        0.0000 
     16 CA        -65.1995  -12.9915   25.7665 C.3       3 GLC5        0.0000 
     17 CA        -63.2620  -12.3570   25.6800 C.3       9 GLL5        0.0000 
     18 CA        -61.6530  -12.5910   24.3580 C.3       3 GLC5        0.0000 
     19 CA        -60.0440  -12.8250   23.0360 C.3       6 GLP5        0.0000 
     20 N         -64.5740  -11.6155   20.9260 N.am      2 SEC2        0.0000 
     21 N         -65.6680  -11.2230   21.8610 N.am      8 SEL2        0.0000 
     22 N         -63.4800  -12.0080   19.9910 N.am      5 SEP2        0.0000 
     23 CA        -67.1120  -10.2605   27.9080 C.3       3 GLC5        0.0000 
     24 CA        -67.8010   -8.5940   27.5810 C.3       9 GLL5        0.0000 
     25 CA        -69.7465   -9.2950   27.6955 C.3       3 GLC5        0.0000 
     26 CA        -71.6920   -9.9960   27.8100 C.3       6 GLP5        0.0000 
     27 CA        -68.2510  -11.1100   22.8255 C.3       3 GLC5        0.0000 
     28 CA        -68.0970   -9.4370   23.6120 C.3       9 GLL5        0.0000 
     29 CA        -69.0700  -12.5510   22.1830 C.3       6 GLP5        0.0000 
     30 CA        -65.6780   -8.6095   22.7490 C.3       3 GLC5        0.0000 
     31 CA        -64.7490   -7.4250   21.5810 C.3       6 GLP5        0.0000 
     32 CA        -66.6185  -10.6000   27.0275 C.3       3 GLC5        0.0000 
     33 CA        -66.1580   -9.4950   25.6780 C.3       9 GLL5        0.0000 
     34 CA        -69.2270  -10.4162   25.7257 C.3       3 GLC5        0.0000 
     35 CA        -67.4700   -9.0510   25.9620 C.3       9 GLL5        0.0000 
     36 CA        -70.5770  -11.6970   26.3380 C.3       6 GLP5        0.0000 
     37 CA        -64.6118  -11.3885   27.3990 C.3       3 GLC5        0.0000 
     38 CA        -63.0610  -10.9940   25.9320 C.3       9 GLL5        0.0000 
     39 CA        -60.9941  -10.1321   25.6061 C.3       3 GLC5        0.0000 
     40 CA        -62.5400  -10.7060   27.1940 C.3       9 GLL5        0.0000 
     41 CA        -59.1070   -9.6830   24.9010 C.3       6 GLP5        0.0000 
@<TRIPOS>BOND
@<TRIPOS>SUBSTRUCTURE
     1 ALC1        1 GROUP        1 X    ALC  0     ROOT ALC X 1
     2 SEC2       20 GROUP        1 X    SEC  0     **** SEC X 2
     3 GLC5        7 GROUP        1 X    GLC  0     **** GLC X 6
     4 ALP1        3 GROUP        1 Y    ALP  0     ROOT ALP Y 8
     5 SEP2       22 GROUP        1 Y    SEP  0     **** SEP Y 9
     6 GLP5        9 GROUP        1 Y    GLP  0     **** GLP Y 13
     7 ALL1        2 GROUP        1 Z    ALL  0     ROOT ALL Z 15
     8 SEL2       21 GROUP        1 Z    SEL  0     **** SEL Z 16
     9 GLL5        8 GROUP        1 Z    GLL  0     **** GLL Z 20
@<TRIPOS>SET

