#    Name: 3qzi_X72_1_ligand
#    Modification time : Tue Mar 25 10:22:54 2014

@<TRIPOS>MOLECULE
3qzi_X72_1_ligand
   31    32     1     0     0
SMALL
NO_CHARGES


@<TRIPOS>ATOM
      1 N01       -64.5620  -10.3250   24.1190 N.pl3     1 X72512      0.0000 
      2 N02       -67.1400   -9.8030   20.9890 N.am      1 X72512      0.0000 
      3 N03       -62.2420  -11.6590   28.1310 N.ar      1 X72512      0.0000 
      4 N04       -62.9850  -13.3460   26.5750 N.ar      1 X72512      0.0000 
      5 N05       -69.6910   -8.5930   25.1230 N.pl3     1 X72512      0.0000 
      6 C06       -68.0970   -9.4370   23.6120 C.ar      1 X72512      0.0000 
      7 C07       -66.7670   -9.9010   23.3240 C.ar      1 X72512      0.0000 
      8 C08       -65.7820   -9.9190   24.3660 C.ar      1 X72512      0.0000 
      9 C09       -66.1580   -9.4950   25.6780 C.ar      1 X72512      0.0000 
     10 C10       -67.4700   -9.0510   25.9620 C.ar      1 X72512      0.0000 
     11 C11       -68.4710   -9.0030   24.9180 C.ar      1 X72512      0.0000 
     12 C12       -66.4780  -10.3260   22.0480 C.2       1 X72512      0.0000 
     13 C13       -63.3840   -9.9190   24.9250 C.3       1 X72512      0.0000 
     14 C14       -63.0610  -10.9940   25.9320 C.ar      1 X72512      0.0000 
     15 C15       -62.5400  -10.7060   27.1940 C.ar      1 X72512      0.0000 
     16 C16       -62.4810  -12.9480   27.7730 C.ar      1 X72512      0.0000 
     17 C17       -63.2620  -12.3570   25.6800 C.ar      1 X72512      0.0000 
     18 O18       -65.6680  -11.2230   21.8610 O.2       1 X72512      0.0000 
     19 O19       -69.9970   -7.8350   26.1450 O.2       1 X72512      0.0000 
     20 O20       -70.6600   -8.8900   24.2780 O.2       1 X72512      0.0000 
     21 CL21      -67.8010   -8.5940   27.5810 Cl        1 X72512      0.0000 
     22 H         -64.3299  -10.9750   23.3223 H         1 X72512      0.0000 
     23 H         -66.8863  -10.1617   20.0907 H         1 X72512      0.0000 
     24 H         -67.8239   -9.1043   21.1990 H         1 X72512      0.0000 
     25 H         -68.7906   -9.4196   22.8559 H         1 X72512      0.0000 
     26 H         -65.4542   -9.5157   26.4275 H         1 X72512      0.0000 
     27 H         -63.5931   -8.9864   25.4517 H         1 X72512      0.0000 
     28 H         -62.5202   -9.7653   24.2760 H         1 X72512      0.0000 
     29 H         -62.3691   -9.6891   27.4304 H         1 X72512      0.0000 
     30 H         -62.2539  -13.7122   28.4929 H         1 X72512      0.0000 
     31 H         -63.6539  -12.6189   24.7311 H         1 X72512      0.0000 
@<TRIPOS>BOND
     1    8    1 1    
     2   13    1 1    
     3   22    1 1    
     4   12    2 am   
     5   23    2 1    
     6   24    2 1    
     7   15    3 ar   
     8   16    3 ar   
     9   16    4 ar   
    10   17    4 ar   
    11   11    5 1    
    12   19    5 2    
    13   20    5 2    
    14    7    6 ar   
    15   11    6 ar   
    16   25    6 1    
    17    8    7 ar   
    18   12    7 1    
    19    9    8 ar   
    20   10    9 ar   
    21   26    9 1    
    22   11   10 ar   
    23   21   10 1    
    24   18   12 2    
    25   14   13 1    
    26   27   13 1    
    27   28   13 1    
    28   15   14 ar   
    29   17   14 ar   
    30   29   15 1    
    31   30   16 1    
    32   31   17 1    
@<TRIPOS>SUBSTRUCTURE
     1 X72512      1 GROUP   
@<TRIPOS>SET

