#    Name: 3qci_NX3_1_INTS_M
#    Modification time : Tue Mar 25 09:37:08 2014

@<TRIPOS>MOLECULE
3qci_NX3_1_INTS_M
   75     0     6     0     0
SMALL
NO_CHARGES


@<TRIPOS>ATOM
      1 CA         17.5380   31.0065   63.0250 C.3       2 GLC5        0.0000 
      2 CA         18.7360   29.5870   63.6690 C.3       6 GLL5        0.0000 
      3 CA         16.3400   32.4260   62.3810 C.3       4 GLP5        0.0000 
      4 CA         19.5480   31.8620   65.6905 C.3       2 GLC5        0.0000 
      5 CA         19.2700   29.8240   64.8580 C.3       6 GLL5        0.0000 
      6 CA         19.8260   33.9000   66.5230 C.3       4 GLP5        0.0000 
      7 CA         20.4375   28.2355   64.9730 C.3       2 GLC5        0.0000 
      8 CA         21.6050   26.6470   65.0880 C.3       4 GLP5        0.0000 
      9 N          21.7480   32.7305   59.7555 N.am      1 SEC2        0.0000 
     10 N          21.4220   31.6720   61.0120 N.am      5 SEL2        0.0000 
     11 N          22.0740   33.7890   58.4990 N.am      3 SEP2        0.0000 
     12 CA         18.8665   31.4845   59.6695 C.3       2 GLC5        0.0000 
     13 CA         19.1790   29.9590   60.9190 C.3       6 GLL5        0.0000 
     14 CA         18.5540   33.0100   58.4200 C.3       4 GLP5        0.0000 
     15 CA         18.2815   31.5210   61.2335 C.3       2 GLC5        0.0000 
     16 CA         17.3840   33.0830   61.5480 C.3       4 GLP5        0.0000 
     17 CA         20.2575   29.7745   59.4920 C.3       2 GLC5        0.0000 
     18 CA         21.3360   29.5900   58.0650 C.3       4 GLP5        0.0000 
     19 CA         16.9930   30.7650   61.6970 C.3       2 GLC5        0.0000 
     20 CA         17.6460   29.1040   61.0130 C.3       6 GLL5        0.0000 
     21 CA         16.4600   27.9915   61.6575 C.3       2 GLC5        0.0000 
     22 CA         15.2740   26.8790   62.3020 C.3       4 GLP5        0.0000 
     23 CA         15.6555   29.9545   55.3870 C.3       2 GLC5        0.0000 
     24 CA         16.1940   29.2400   57.4170 C.3       6 GLL5        0.0000 
     25 CA         15.1170   30.6690   53.3570 C.3       4 GLP5        0.0000 
     26 CA         15.4745   25.6965   58.1315 C.3       2 GLC5        0.0000 
     27 CA         17.1980   25.2300   57.4850 C.3       6 GLL5        0.0000 
     28 CA         13.7510   26.1630   58.7780 C.3       4 GLP5        0.0000 
     29 CA         15.5250   24.0445   56.9195 C.3       2 GLC5        0.0000 
     30 CA         13.8520   22.8590   56.3540 C.3       4 GLP5        0.0000 
     31 CA         18.2775   24.8985   59.2060 C.3       2 GLC5        0.0000 
     32 CA         19.3570   24.5670   60.9270 C.3       4 GLP5        0.0000 
     33 CA         18.1060   23.8425   57.0920 C.3       2 GLC5        0.0000 
     34 CA         19.0140   22.4550   56.6990 C.3       4 GLP5        0.0000 
     35 CA         16.6820   23.9730   59.0810 C.3       2 GLC5        0.0000 
     36 CA         16.1660   22.7160   60.6770 C.3       4 GLP5        0.0000 
     37 CA         17.5080   28.1550   55.2890 C.3       2 GLC5        0.0000 
     38 CA         15.8690   27.3170   55.5380 C.3       6 GLL5        0.0000 
     39 CA         19.1470   28.9930   55.0400 C.3       4 GLP5        0.0000 
     40 CA         15.0490   29.0960   55.0470 C.3       2 GLC5        0.0000 
     41 CA         14.2290   30.8750   54.5560 C.3       4 GLP5        0.0000 
     42 CA         14.8100   26.7400   57.1580 C.3       2 GLC5        0.0000 
     43 CA         14.8315   26.8555   54.4245 C.3       2 GLC5        0.0000 
     44 CA         13.7940   26.3940   53.3110 C.3       4 GLP5        0.0000 
     45 CA         16.4195   25.2685   54.8615 C.3       2 GLC5        0.0000 
     46 CA         16.9700   23.2200   54.1850 C.3       4 GLP5        0.0000 
     47 N          22.4115   33.8875   59.7235 N.am      1 SEC2        0.0000 
     48 N          22.7490   33.9860   60.9480 N.am      5 SEL2        0.0000 
     49 CA         23.6045   31.4605   59.3695 C.3       2 GLC5        0.0000 
     50 CA         25.1750   31.9950   60.4410 C.3       6 GLL5        0.0000 
     51 CA         22.0340   30.9260   58.2980 C.3       4 GLP5        0.0000 
     52 CA         28.6105   29.9050   61.6580 C.3       2 GLC5        0.0000 
     53 CA         27.5290   31.6790   61.1120 C.3       6 GLL5        0.0000 
     54 CA         29.6920   28.1310   62.2040 C.3       4 GLP5        0.0000 
     55 CA         20.4082   32.6155   64.5080 C.3       2 GLC5        0.0000 
     56 CA         20.6840   30.7920   64.7490 C.3       6 GLL5        0.0000 
     57 CA         20.1790   34.3920   65.1190 C.3       4 GLP5        0.0000 
     58 CA         21.0085   30.1105   66.4642 C.3       2 GLC5        0.0000 
     59 CA         22.0400   29.9130   68.1250 C.3       4 GLP5        0.0000 
     60 CA         19.2211   32.1022   62.8932 C.3       2 GLC5        0.0000 
     61 CA         18.3490   33.6980   62.5350 C.3       4 GLP5        0.0000 
     62 CA         18.3155   28.0772   64.7488 C.3       2 GLC5        0.0000 
     63 CA         17.6280   26.4490   65.2340 C.3       4 GLP5        0.0000 
     64 CA         14.8260   28.8422   58.8575 C.3       2 GLC5        0.0000 
     65 CA         13.0970   28.4890   59.4170 C.3       4 GLP5        0.0000 
     66 CA         17.8976   28.3586   56.3309 C.3       2 GLC5        0.0000 
     67 CA         16.9990   26.8970   57.9890 C.3       6 GLL5        0.0000 
     68 CA         18.2832   25.8298   59.7825 C.3       2 GLC5        0.0000 
     69 CA         15.4055   26.7485   58.5959 C.3       2 GLC5        0.0000 
     70 CA         17.4200   27.2880   59.2870 C.3       6 GLL5        0.0000 
     71 CA         26.8603   31.2608   63.9413 C.3       2 GLC5        0.0000 
     72 CA         26.0210   32.9810   62.6260 C.3       6 GLL5        0.0000 
     73 CA         27.0500   29.8120   65.4000 C.3       4 GLP5        0.0000 
     74 CA         21.3175   29.1859   63.3796 C.3       2 GLC5        0.0000 
     75 CA         22.7450   28.0120   63.2420 C.3       4 GLP5        0.0000 
@<TRIPOS>BOND
@<TRIPOS>SUBSTRUCTURE
     1 SEC2        9 GROUP        1 X    SEC  0     ROOT SEC X 2
     2 GLC5        1 GROUP        1 X    GLC  0     **** GLC X 6
     3 SEP2       11 GROUP        1 Y    SEP  0     ROOT SEP Y 9
     4 GLP5        3 GROUP        1 Y    GLP  0     **** GLP Y 13
     5 SEL2       10 GROUP        1 Z    SEL  0     ROOT SEL Z 16
     6 GLL5        2 GROUP        1 Z    GLL  0     **** GLL Z 20
@<TRIPOS>SET

