#    Name: 3qci_NX3_1_ligand
#    Modification time : Tue Mar 25 09:37:08 2014

@<TRIPOS>MOLECULE
3qci_NX3_1_ligand
   42    44     1     0     0
SMALL
NO_CHARGES


@<TRIPOS>ATOM
      1 S1         20.6840   30.7920   64.7490 S.3       1 NX32001     0.0000 
      2 C2         20.5910   30.8860   63.0450 C.2       1 NX32001     0.0000 
      3 C3         19.5490   30.1740   62.6060 C.2       1 NX32001     0.0000 
      4 C4         18.7360   29.5870   63.6690 C.2       1 NX32001     0.0000 
      5 C5         19.2700   29.8240   64.8580 C.2       1 NX32001     0.0000 
      6 C6         21.5500   31.6730   62.2290 C.2       1 NX32001     0.0000 
      7 N7         22.4920   32.3650   62.8750 N.am      1 NX32001     0.0000 
      8 O8         21.4220   31.6720   61.0120 O.2       1 NX32001     0.0000 
      9 S9         23.4130   33.4600   62.1020 S.o2      1 NX32001     0.0000 
     10 S10        19.1790   29.9590   60.9190 S.3       1 NX32001     0.0000 
     11 C11        17.6460   29.1040   61.0130 C.3       1 NX32001     0.0000 
     12 C12        17.2160   28.6730   59.6380 C.ar      1 NX32001     0.0000 
     13 C13        16.6160   29.6290   58.7200 C.ar      1 NX32001     0.0000 
     14 C14        16.1940   29.2400   57.4170 C.ar      1 NX32001     0.0000 
     15 C15        16.4010   27.8630   57.0920 C.ar      1 NX32001     0.0000 
     16 C16        16.9990   26.8970   57.9890 C.ar      1 NX32001     0.0000 
     17 C17        17.4200   27.2880   59.2870 C.ar      1 NX32001     0.0000 
     18 CL18       17.1980   25.2300   57.4850 Cl        1 NX32001     0.0000 
     19 CL19       15.8690   27.3170   55.5380 Cl        1 NX32001     0.0000 
     20 O20        23.8590   34.3620   63.1140 O.2       1 NX32001     0.0000 
     21 O21        22.7490   33.9860   60.9480 O.2       1 NX32001     0.0000 
     22 C22        24.9630   32.7470   61.6620 C.ar      1 NX32001     0.0000 
     23 C23        25.1750   31.9950   60.4410 C.ar      1 NX32001     0.0000 
     24 C24        26.4770   31.4370   60.1380 C.ar      1 NX32001     0.0000 
     25 C25        27.5290   31.6790   61.1120 C.ar      1 NX32001     0.0000 
     26 C26        27.3200   32.4380   62.3390 C.ar      1 NX32001     0.0000 
     27 C27        26.0210   32.9810   62.6260 C.ar      1 NX32001     0.0000 
     28 N28        28.3370   32.6590   63.2240 N.pl3     1 NX32001     0.0000 
     29 H          17.9264   29.1026   63.4558 H         1 NX32001     0.0000 
     30 H          19.0633   29.5912   65.7476 H         1 NX32001     0.0000 
     31 H          22.7320   32.2971   63.8592 H         1 NX32001     0.0000 
     32 H          16.9906   29.8191   61.4590 H         1 NX32001     0.0000 
     33 H          17.8574   28.2878   61.6679 H         1 NX32001     0.0000 
     34 H          16.5008   30.5962   59.0291 H         1 NX32001     0.0000 
     35 H          15.7881   29.8720   56.7826 H         1 NX32001     0.0000 
     36 H          17.8321   26.6542   59.9248 H         1 NX32001     0.0000 
     37 H          24.4071   31.8590   59.7954 H         1 NX32001     0.0000 
     38 H          26.6431   30.9216   59.3180 H         1 NX32001     0.0000 
     39 H          28.4672   31.2966   60.9278 H         1 NX32001     0.0000 
     40 H          25.8470   33.5006   63.4558 H         1 NX32001     0.0000 
     41 H          29.2336   32.3018   62.9622 H         1 NX32001     0.0000 
     42 H          28.0956   33.1586   64.0559 H         1 NX32001     0.0000 
@<TRIPOS>BOND
     1    2    1 1    
     2    5    1 1    
     3    3    2 2    
     4    6    2 1    
     5    4    3 1    
     6   10    3 1    
     7    5    4 2    
     8   29    4 1    
     9   30    5 1    
    10    7    6 am   
    11    8    6 2    
    12    9    7 1    
    13   31    7 1    
    14   20    9 2    
    15   21    9 2    
    16   22    9 1    
    17   11   10 1    
    18   12   11 1    
    19   32   11 1    
    20   33   11 1    
    21   13   12 ar   
    22   17   12 ar   
    23   14   13 ar   
    24   34   13 1    
    25   15   14 ar   
    26   35   14 1    
    27   16   15 ar   
    28   19   15 1    
    29   17   16 ar   
    30   18   16 1    
    31   36   17 1    
    32   23   22 ar   
    33   27   22 ar   
    34   24   23 ar   
    35   37   23 1    
    36   25   24 ar   
    37   38   24 1    
    38   26   25 ar   
    39   39   25 1    
    40   27   26 ar   
    41   28   26 1    
    42   40   27 1    
    43   41   28 1    
    44   42   28 1    
@<TRIPOS>SUBSTRUCTURE
     1 NX32001     1 GROUP   
@<TRIPOS>SET

