#    Name: 1w7g_MIU_1_INTS_M
#    Modification time : Tue Mar 25 08:45:40 2014

@<TRIPOS>MOLECULE
1w7g_MIU_1_INTS_M
   59     0     9     0     0
SMALL
NO_CHARGES


@<TRIPOS>ATOM
      1 N          13.5090  -18.1415   23.8075 N.am      2 SEC2        0.0000 
      2 N          14.9270  -18.4420   23.1210 N.am      8 SEL2        0.0000 
      3 N          12.0910  -17.8410   24.4940 N.am      5 SEP2        0.0000 
      4 CA         20.7205  -12.9930   23.5775 C.3       3 GLC5        0.0000 
      5 CA         20.3990  -14.6160   24.0760 C.3       9 GLL5        0.0000 
      6 CA         21.0420  -11.3700   23.0790 C.3       6 GLP5        0.0000 
      7 CA         19.0160  -13.1605   24.3740 C.3       3 GLC5        0.0000 
      8 CA         17.6330  -11.7050   24.6720 C.3       6 GLP5        0.0000 
      9 CA         18.0940  -14.4010   26.4405 C.3       3 GLC5        0.0000 
     10 CA         18.7940  -15.4200   25.3640 C.3       9 GLL5        0.0000 
     11 CA         17.3940  -13.3820   27.5170 C.3       6 GLP5        0.0000 
     12 O          14.6145  -15.7605   23.3105 O.2       1 ALC1        0.0000 
     13 O          14.5230  -16.0470   21.9810 O.2       7 ALL1        0.0000 
     14 O          14.7060  -15.4740   24.6400 O.2       4 ALP1        0.0000 
     15 N          15.5370  -13.3465   23.7500 N.am      2 SEC2        0.0000 
     16 N          16.1420  -13.8000   22.4500 N.am      8 SEL2        0.0000 
     17 N          14.9320  -12.8930   25.0500 N.am      5 SEP2        0.0000 
     18 CA         13.2750  -13.6510   23.8085 C.3       3 GLC5        0.0000 
     19 CA         12.6070  -13.7300   21.7600 C.3       9 GLL5        0.0000 
     20 CA         13.9430  -13.5720   25.8570 C.3       6 GLP5        0.0000 
     21 CA         10.7200  -14.5420   21.2675 C.3       3 GLC5        0.0000 
     22 CA          8.8330  -15.3540   20.7750 C.3       6 GLP5        0.0000 
     23 CA         10.6070  -12.3045   20.4455 C.3       3 GLC5        0.0000 
     24 CA         12.3000  -12.3150   21.2670 C.3       9 GLL5        0.0000 
     25 CA          8.9140  -12.2940   19.6240 C.3       6 GLP5        0.0000 
     26 O           9.9850  -11.5625   22.2405 O.2       1 ALC1        0.0000 
     27 O          11.5910  -11.4370   22.2280 O.2       7 ALL1        0.0000 
     28 O           8.3790  -11.6880   22.2530 O.2       4 ALP1        0.0000 
     29 O          13.2080  -10.9850   25.2705 O.2       1 ALC1        0.0000 
     30 O          11.7590  -11.0560   24.4550 O.2       7 ALL1        0.0000 
     31 O          14.6570  -10.9140   26.0860 O.2       4 ALP1        0.0000 
     32 O          13.8995  -10.4265   24.6085 O.2       1 ALC1        0.0000 
     33 O          13.1420   -9.9390   23.1310 O.2       7 ALL1        0.0000 
     34 CA         17.8250  -12.2430   22.6225 C.3       3 GLC5        0.0000 
     35 CA         18.0170  -12.7810   20.5730 C.3       9 GLL5        0.0000 
     36 CA         18.0500  -15.7320   16.9445 C.3       3 GLC5        0.0000 
     37 CA         17.4500  -14.1370   18.0010 C.3       9 GLL5        0.0000 
     38 CA         18.6500  -17.3270   15.8880 C.3       6 GLP5        0.0000 
     39 CA         19.0990  -15.8685   16.7500 C.3       3 GLC5        0.0000 
     40 CA         19.5480  -14.4100   17.6120 C.3       9 GLL5        0.0000 
     41 CA         20.1825  -15.6190   15.8505 C.3       3 GLC5        0.0000 
     42 CA         20.4690  -14.0070   16.4240 C.3       9 GLL5        0.0000 
     43 CA         19.8960  -17.2310   15.2770 C.3       6 GLP5        0.0000 
     44 CA         20.7135  -13.1840   14.3550 C.3       3 GLC5        0.0000 
     45 CA         20.9580  -12.3610   12.2860 C.3       6 GLP5        0.0000 
     46 CA         19.8565  -11.2310   17.2270 C.3       3 GLC5        0.0000 
     47 CA         20.4480  -12.5070   16.0730 C.3       9 GLL5        0.0000 
     48 CA         19.2650   -9.9550   18.3810 C.3       6 GLP5        0.0000 
     49 CA         22.3340  -12.6195   16.2385 C.3       3 GLC5        0.0000 
     50 CA         24.2200  -12.7320   16.4040 C.3       6 GLP5        0.0000 
     51 CA         21.2125  -11.9345   14.4475 C.3       3 GLC5        0.0000 
     52 CA         21.9770  -11.3620   12.8220 C.3       6 GLP5        0.0000 
     53 CA         19.6516  -16.0648   26.9222 C.3       3 GLC5        0.0000 
     54 CA         19.8070  -16.3350   28.7840 C.3       6 GLP5        0.0000 
     55 CA         18.9127  -11.5355   19.2860 C.3       3 GLC5        0.0000 
     56 CA         19.8012  -12.2430   21.6350 C.3       3 GLC5        0.0000 
     57 CA         19.1040  -13.4510   19.8090 C.3       9 GLL5        0.0000 
     58 CA         21.7542  -14.5798   17.2065 C.3       3 GLC5        0.0000 
     59 CA         23.5000  -14.9510   17.3950 C.3       6 GLP5        0.0000 
@<TRIPOS>BOND
@<TRIPOS>SUBSTRUCTURE
     1 ALC1       12 GROUP        1 X    ALC  0     ROOT ALC X 1
     2 SEC2        1 GROUP        1 X    SEC  0     **** SEC X 2
     3 GLC5        4 GROUP        1 X    GLC  0     **** GLC X 6
     4 ALP1       14 GROUP        1 Y    ALP  0     ROOT ALP Y 8
     5 SEP2        3 GROUP        1 Y    SEP  0     **** SEP Y 9
     6 GLP5        6 GROUP        1 Y    GLP  0     **** GLP Y 13
     7 ALL1       13 GROUP        1 Z    ALL  0     ROOT ALL Z 15
     8 SEL2        2 GROUP        1 Z    SEL  0     **** SEL Z 16
     9 GLL5        5 GROUP        1 Z    GLL  0     **** GLL Z 20
@<TRIPOS>SET

