#    Name: 1w7g_MIU_1_ligand
#    Modification time : Tue Mar 25 08:45:40 2014

@<TRIPOS>MOLECULE
1w7g_MIU_1_ligand
   69    70     1     0     0
SMALL
NO_CHARGES


@<TRIPOS>ATOM
      1 C1         17.1550  -17.2920   21.9850 C.ar      1 MIU300      0.0000 
      2 S11        15.4240  -17.5330   21.9250 S.o2      1 MIU300      0.0000 
      3 O24        14.9270  -18.4420   23.1210 O.2       1 MIU300      0.0000 
      4 O25        15.0100  -18.2220   20.5560 O.2       1 MIU300      0.0000 
      5 C2         17.9760  -17.7160   20.9080 C.ar      1 MIU300      0.0000 
      6 C3         19.3800  -17.5020   20.9810 C.ar      1 MIU300      0.0000 
      7 C4         19.9490  -16.8740   22.1240 C.ar      1 MIU300      0.0000 
      8 C5         19.1160  -16.4470   23.2130 C.ar      1 MIU300      0.0000 
      9 C6         19.7500  -15.7570   24.4540 C.3       1 MIU300      0.0000 
     10 F61        20.6470  -16.5810   25.0600 F         1 MIU300      0.0000 
     11 F1         20.3990  -14.6160   24.0760 F         1 MIU300      0.0000 
     12 F6         18.7940  -15.4200   25.3640 F         1 MIU300      0.0000 
     13 C10        17.7110  -16.6690   23.1270 C.ar      1 MIU300      0.0000 
     14 N12        14.5230  -16.0470   21.9810 N.pl3     1 MIU300      0.0000 
     15 C13        14.7640  -15.0710   20.8850 C.3       1 MIU300      0.0000 
     16 C14        15.9460  -14.0500   21.2480 C.2       1 MIU300      0.0000 
     17 O15        16.1420  -13.8000   22.4500 O.2       1 MIU300      0.0000 
     18 C16        13.3380  -14.4880   20.6240 C.3       1 MIU300      0.0000 
     19 C17        12.6070  -13.7300   21.7600 C.3       1 MIU300      0.0000 
     20 C18        12.3000  -12.3150   21.2670 C.3       1 MIU300      0.0000 
     21 N19        11.5910  -11.4370   22.2280 N.pl3     1 MIU300      0.0000 
     22 C20        12.1740  -10.8070   23.2440 C.cat     1 MIU300      0.0000 
     23 N22        11.7590  -11.0560   24.4550 N.pl3     1 MIU300      0.0000 
     24 N21        13.1420   -9.9390   23.1310 N.pl3     1 MIU300      0.0000 
     25 N26        16.7510  -13.4650   20.2720 N.am      1 MIU300      0.0000 
     26 C27        18.0170  -12.7810   20.5730 C.3       1 MIU300      0.0000 
     27 C28        19.1040  -13.4510   19.8090 C.3       1 MIU300      0.0000 
     28 N29        18.7460  -13.4100   18.3240 N.4       1 MIU300      0.0000 
     29 C30        17.4500  -14.1370   18.0010 C.3       1 MIU300      0.0000 
     30 C31        16.3150  -13.4990   18.8050 C.3       1 MIU300      0.0000 
     31 C32        19.5480  -14.4100   17.6120 C.3       1 MIU300      0.0000 
     32 C33        20.4690  -14.0070   16.4240 C.3       1 MIU300      0.0000 
     33 C8         20.4480  -12.5070   16.0730 C.3       1 MIU300      0.0000 
     34 N9         19.0800  -12.1030   15.6960 N.4       1 MIU300      0.0000 
     35 H          17.5687  -18.1652   20.0974 H         1 MIU300      0.0000 
     36 H          19.9802  -17.7989   20.2132 H         1 MIU300      0.0000 
     37 H          20.9559  -16.7233   22.1758 H         1 MIU300      0.0000 
     38 H          17.1067  -16.3754   23.8955 H         1 MIU300      0.0000 
     39 H          13.9429  -15.9729   22.7118 H         1 MIU300      0.0000 
     40 H          15.0516  -15.6332   19.9981 H         1 MIU300      0.0000 
     41 H          12.6808  -15.3307   20.2838 H         1 MIU300      0.0000 
     42 H          13.4036  -13.8092   19.7337 H         1 MIU300      0.0000 
     43 H          13.2495  -13.6844   22.6206 H         1 MIU300      0.0000 
     44 H          11.6904  -14.2424   21.9898 H         1 MIU300      0.0000 
     45 H          11.7069  -12.4007   20.3262 H         1 MIU300      0.0000 
     46 H          13.2630  -11.8412   20.9631 H         1 MIU300      0.0000 
     47 H          10.5544  -11.3444   22.0418 H         1 MIU300      0.0000 
     48 H          11.0183  -11.7227   24.5379 H         1 MIU300      0.0000 
     49 H          12.2196  -10.5573   25.1892 H         1 MIU300      0.0000 
     50 H          13.4684   -9.5304   23.9834 H         1 MIU300      0.0000 
     51 H          13.4684   -9.7623   22.2024 H         1 MIU300      0.0000 
     52 H          18.2325  -12.8378   21.6392 H         1 MIU300      0.0000 
     53 H          17.9587  -11.7332   20.2810 H         1 MIU300      0.0000 
     54 H          19.2017  -14.4849   20.1169 H         1 MIU300      0.0000 
     55 H          20.0446  -12.9345   19.9565 H         1 MIU300      0.0000 
     56 H          18.7818  -12.5177   17.8826 H         1 MIU300      0.0000 
     57 H          17.5393  -15.1785   18.2744 H         1 MIU300      0.0000 
     58 H          17.2350  -14.0459   16.9460 H         1 MIU300      0.0000 
     59 H          16.1474  -12.4964   18.4569 H         1 MIU300      0.0000 
     60 H          15.4265  -14.0955   18.7082 H         1 MIU300      0.0000 
     61 H          18.8702  -15.2399   17.2233 H         1 MIU300      0.0000 
     62 H          20.2089  -14.9703   18.3526 H         1 MIU300      0.0000 
     63 H          20.1664  -14.5867   15.5379 H         1 MIU300      0.0000 
     64 H          21.5010  -14.3034   16.6686 H         1 MIU300      0.0000 
     65 H          21.1417  -12.3401   15.2505 H         1 MIU300      0.0000 
     66 H          20.7908  -11.9490   16.9429 H         1 MIU300      0.0000 
     67 H          19.0301  -11.1314   15.4648 H         1 MIU300      0.0000 
     68 H          18.7486  -12.6109   14.9009 H         1 MIU300      0.0000 
     69 H          18.4282  -12.2616   16.4376 H         1 MIU300      0.0000 
@<TRIPOS>BOND
     1    2    1 1    
     2    5    1 ar   
     3   13    1 ar   
     4    3    2 2    
     5    4    2 2    
     6   14    2 1    
     7    6    5 ar   
     8   35    5 1    
     9    7    6 ar   
    10   36    6 1    
    11    8    7 ar   
    12   37    7 1    
    13    9    8 1    
    14   13    8 ar   
    15   10    9 1    
    16   11    9 1    
    17   12    9 1    
    18   38   13 1    
    19   15   14 1    
    20   39   14 1    
    21   16   15 1    
    22   18   15 1    
    23   40   15 1    
    24   17   16 2    
    25   25   16 am   
    26   19   18 1    
    27   41   18 1    
    28   42   18 1    
    29   20   19 1    
    30   43   19 1    
    31   44   19 1    
    32   21   20 1    
    33   45   20 1    
    34   46   20 1    
    35   22   21 ar   
    36   47   21 1    
    37   23   22 ar   
    38   24   22 ar   
    39   48   23 1    
    40   49   23 1    
    41   50   24 1    
    42   51   24 1    
    43   26   25 1    
    44   30   25 1    
    45   27   26 1    
    46   52   26 1    
    47   53   26 1    
    48   28   27 1    
    49   54   27 1    
    50   55   27 1    
    51   29   28 1    
    52   31   28 1    
    53   56   28 1    
    54   30   29 1    
    55   57   29 1    
    56   58   29 1    
    57   59   30 1    
    58   60   30 1    
    59   32   31 1    
    60   61   31 1    
    61   62   31 1    
    62   33   32 1    
    63   63   32 1    
    64   64   32 1    
    65   34   33 1    
    66   65   33 1    
    67   66   33 1    
    68   67   34 1    
    69   68   34 1    
    70   69   34 1    
@<TRIPOS>SUBSTRUCTURE
     1 MIU300      1 GROUP   
@<TRIPOS>SET

