#    Name: 4bra_ANP_2_INTS_M
#    Modification time : Tue Mar 25 08:09:48 2014

@<TRIPOS>MOLECULE
4bra_ANP_2_INTS_M
   78     0    15     0     0
SMALL
NO_CHARGES


@<TRIPOS>ATOM
      1 CA         69.2860   15.2205   34.1340 C.3       5 GLC5        0.0000 
      2 CA         69.7400   14.7730   32.2990 C.3      15 GLL5        0.0000 
      3 CA         68.8320   15.6680   35.9690 C.3      10 GLP5        0.0000 
      4 CA         69.7230   16.1240   30.5910 C.3       5 GLC5        0.0000 
      5 CA         69.7060   17.4750   28.8830 C.3      10 GLP5        0.0000 
      6 CA         67.9795   14.4495   31.9030 C.3       5 GLC5        0.0000 
      7 CA         66.2190   14.1260   31.5070 C.3      10 GLP5        0.0000 
      8 CA         70.8135   16.5685   30.2930 C.3       5 GLC5        0.0000 
      9 CA         71.9210   15.6620   31.7030 C.3      15 GLL5        0.0000 
     10 NZ         76.0825    3.8865   30.8060 N.4       3 LYC4        0.0000 
     11 NZ         74.7020    3.7480   31.1900 N.4      13 LYL4        0.0000 
     12 NZ         77.9150    5.0570   29.7420 N.4       8 LYP4        0.0000 
     13 Zn         74.5750    3.0940   31.9650 Zn        4 ZIC7        0.0000 
     14 Zn         74.7020    3.7480   31.1900 Zn       14 ZIL7        0.0000 
     15 Zn         74.4480    2.4400   32.7400 Zn        9 ZIP7        0.0000 
     16 N          76.0825    3.8865   30.8060 N.am      2 SEC2        0.0000 
     17 N          74.7020    3.7480   31.1900 N.am     12 SEL2        0.0000 
     18 N          77.4630    4.0250   30.4220 N.am      7 SEP2        0.0000 
     19 O          71.7120   11.6155   27.4895 O.2       1 ALC1        0.0000 
     20 O          71.1590   10.3460   28.0520 O.2      11 ALL1        0.0000 
     21 O          72.2650   12.8850   26.9270 O.2       6 ALP1        0.0000 
     22 N          73.3105    1.4525   28.3645 N.am      2 SEC2        0.0000 
     23 N          72.7720    0.9160   29.5090 N.am     12 SEL2        0.0000 
     24 N          73.8490    1.9890   27.2200 N.am      7 SEP2        0.0000 
     25 N          73.5610   -0.1155   29.8335 N.am      2 SEC2        0.0000 
     26 N          74.3500   -1.1470   30.1580 N.am      7 SEP2        0.0000 
     27 N          72.2645   -0.7235   29.3000 N.am      2 SEC2        0.0000 
     28 N          71.7570   -2.3630   29.0910 N.am      7 SEP2        0.0000 
     29 CA         68.8830    9.1565   31.6240 C.3       5 GLC5        0.0000 
     30 CA         70.9100    8.9490   31.3010 C.3      15 GLL5        0.0000 
     31 CA         66.8560    9.3640   31.9470 C.3      10 GLP5        0.0000 
     32 CA         70.9770    6.2365   32.5835 C.3       5 GLC5        0.0000 
     33 CA         71.7180    7.9330   32.0500 C.3      15 GLL5        0.0000 
     34 CA         70.2360    4.5400   33.1170 C.3      10 GLP5        0.0000 
     35 NZ         76.5750    6.0965   30.4135 N.4       3 LYC4        0.0000 
     36 NZ         75.2350    7.1360   31.0850 N.4      13 LYL4        0.0000 
     37 N          71.5540    5.3355   30.7880 N.am      2 SEC2        0.0000 
     38 N          73.1070    5.6850   30.8690 N.am     12 SEL2        0.0000 
     39 N          70.0010    4.9860   30.7070 N.am      7 SEP2        0.0000 
     40 NZ         75.9575    4.4245   29.6345 N.4       3 LYC4        0.0000 
     41 NZ         74.4520    4.8240   28.8470 N.4      13 LYL4        0.0000 
     42 N          74.2575    4.6640   27.5025 N.am      2 SEC2        0.0000 
     43 N          74.4520    4.8240   28.8470 N.am     12 SEL2        0.0000 
     44 N          74.0630    4.5040   26.1580 N.am      7 SEP2        0.0000 
     45 N          74.6415    5.9890   28.2075 N.am      2 SEC2        0.0000 
     46 N          74.8310    7.1540   27.5680 N.am      7 SEP2        0.0000 
     47 N          75.9575    4.4245   29.6345 N.am      2 SEC2        0.0000 
     48 N          75.7690    5.3245   28.9240 N.am      2 SEC2        0.0000 
     49 N          77.0860    5.8250   29.0010 N.am      7 SEP2        0.0000 
     50 Zn         73.5620    2.1345   32.3295 Zn        4 ZIC7        0.0000 
     51 Zn         72.6760    1.8290   31.9190 Zn       14 ZIL7        0.0000 
     52 N          71.7745    1.6630   32.9510 N.am      2 SEC2        0.0000 
     53 N          72.6760    1.8290   31.9190 N.am     12 SEL2        0.0000 
     54 N          70.8730    1.4970   33.9830 N.am      7 SEP2        0.0000 
     55 N          69.5490    2.4830   29.9205 N.am      2 SEC2        0.0000 
     56 N          70.6070    1.8380   30.5960 N.am     12 SEL2        0.0000 
     57 N          68.4910    3.1280   29.2450 N.am      7 SEP2        0.0000 
     58 N          69.1085    1.4705   30.7445 N.am      2 SEC2        0.0000 
     59 N          67.6100    1.1030   30.8930 N.am      7 SEP2        0.0000 
     60 CA         71.3950   10.6780   32.5490 C.3       5 GLC5        0.0000 
     61 CA         71.2490   11.0320   30.4730 C.3      15 GLL5        0.0000 
     62 CA         71.5410   10.3240   34.6250 C.3      10 GLP5        0.0000 
     63 O          71.6675   17.8705   31.8425 O.2       1 ALC1        0.0000 
     64 O          72.8240   16.6470   31.6160 O.2      11 ALL1        0.0000 
     65 O          70.5110   19.0940   32.0690 O.2       6 ALP1        0.0000 
     66 N          69.1000   12.3245   32.3410 N.am      2 SEC2        0.0000 
     67 N          69.9940   13.5170   31.8400 N.am     12 SEL2        0.0000 
     68 N          68.2060   11.1320   32.8420 N.am      7 SEP2        0.0000 
     69 CA         72.8213   14.5742   32.8290 C.3       5 GLC5        0.0000 
     70 CA         73.7960   14.3850   34.2200 C.3      10 GLP5        0.0000 
     71 CA         71.9230    8.2323   28.1253 C.3       5 GLC5        0.0000 
     72 CA         71.6790   10.0920   29.3480 C.3      15 GLL5        0.0000 
     73 CA         72.5110    7.0300   26.6880 C.3      10 GLP5        0.0000 
     74 CA         71.4275    9.3825   33.1502 C.3       5 GLC5        0.0000 
     75 CA         70.3351    6.9150   30.3982 C.3       5 GLC5        0.0000 
     76 CA         69.3360    5.4320   29.5020 C.3      10 GLP5        0.0000 
     77 CA         70.9345   12.2655   28.8603 C.3       5 GLC5        0.0000 
     78 CA         70.4050   13.9690   27.8100 C.3      10 GLP5        0.0000 
@<TRIPOS>BOND
@<TRIPOS>SUBSTRUCTURE
     1 ALC1       19 GROUP        1 X    ALC  0     ROOT ALC X 1
     2 SEC2       16 GROUP        1 X    SEC  0     **** SEC X 2
     3 LYC4       10 GROUP        1 X    LYC  0     **** LYC X 4
     4 ZIC7       13 GROUP        1 X    ZIC  0     **** ZIC X 5
     5 GLC5        1 GROUP        1 X    GLC  0     **** GLC X 6
     6 ALP1       21 GROUP        1 Y    ALP  0     ROOT ALP Y 8
     7 SEP2       18 GROUP        1 Y    SEP  0     **** SEP Y 9
     8 LYP4       12 GROUP        1 Y    LYP  0     **** LYP Y 11
     9 ZIP7       15 GROUP        1 Y    ZIP  0     **** ZIP Y 12
    10 GLP5        3 GROUP        1 Y    GLP  0     **** GLP Y 13
    11 ALL1       20 GROUP        1 Z    ALL  0     ROOT ALL Z 15
    12 SEL2       17 GROUP        1 Z    SEL  0     **** SEL Z 16
    13 LYL4       11 GROUP        1 Z    LYL  0     **** LYL Z 18
    14 ZIL7       14 GROUP        1 Z    ZIL  0     **** ZIL Z 19
    15 GLL5        2 GROUP        1 Z    GLL  0     **** GLL Z 20
@<TRIPOS>SET

