#    Name: 4bra_ANP_2_ligand
#    Modification time : Tue Mar 25 08:09:48 2014

@<TRIPOS>MOLECULE
4bra_ANP_2_ligand
   43    45     1     0     0
SMALL
NO_CHARGES


@<TRIPOS>ATOM
      1 C2         69.7400   14.7730   32.2990 C.ar      1 ANP1393     0.0000 
      2 C4         71.2570   13.3220   31.2320 C.ar      1 ANP1393     0.0000 
      3 C5         72.2870   14.4080   31.1140 C.ar      1 ANP1393     0.0000 
      4 C6         71.9210   15.6620   31.7030 C.ar      1 ANP1393     0.0000 
      5 C8         73.1630   12.6760   30.2650 C.2       1 ANP1393     0.0000 
      6 N1         70.6740   15.7690   32.2400 N.ar      1 ANP1393     0.0000 
      7 O1B        74.7020    3.7480   31.1900 O.co2     1 ANP1393     0.0000 
      8 O2'        71.1590   10.3460   28.0520 O.3       1 ANP1393     0.0000 
      9 O1G        72.7720    0.9160   29.5090 O.co2     1 ANP1393     0.0000 
     10 O3'        69.6360    8.7650   29.2620 O.3       1 ANP1393     0.0000 
     11 C3'        70.9910    8.7770   29.7770 C.3       1 ANP1393     0.0000 
     12 C4'        70.9100    8.9490   31.3010 C.3       1 ANP1393     0.0000 
     13 C5'        71.7180    7.9330   32.0500 C.3       1 ANP1393     0.0000 
     14 O5'        72.9490    8.0410   31.4460 O.3       1 ANP1393     0.0000 
     15 PA         73.9130    6.8070   31.7280 P.3       1 ANP1393     0.0000 
     16 O1A        75.2350    7.1360   31.0850 O.co2     1 ANP1393     0.0000 
     17 O3A        73.1070    5.6850   30.8690 O.3       1 ANP1393     0.0000 
     18 O2A        73.7270    6.4850   33.2020 O.co2     1 ANP1393     0.0000 
     19 O2B        74.4520    4.8240   28.8470 O.co2     1 ANP1393     0.0000 
     20 O2G        72.6760    1.8290   31.9190 O.co2     1 ANP1393     0.0000 
     21 O3G        70.6070    1.8380   30.5960 O.co2     1 ANP1393     0.0000 
     22 C2'        71.6790   10.0920   29.3480 C.3       1 ANP1393     0.0000 
     23 C1'        71.2490   11.0320   30.4730 C.3       1 ANP1393     0.0000 
     24 O4'        71.4200   10.2680   31.6170 O.3       1 ANP1393     0.0000 
     25 N9         71.8990   12.3190   30.6500 N.pl3     1 ANP1393     0.0000 
     26 N7         73.4180   13.9700   30.5340 N.2       1 ANP1393     0.0000 
     27 N6         72.8240   16.6470   31.6160 N.pl3     1 ANP1393     0.0000 
     28 N3         69.9940   13.5170   31.8400 N.ar      1 ANP1393     0.0000 
     29 PB         73.8000    4.4020   30.1730 P.3       1 ANP1393     0.0000 
     30 N3B        72.3990    3.5100   29.8870 N.4       1 ANP1393     0.0000 
     31 PG         72.1390    1.9390   30.4710 P.3       1 ANP1393     0.0000 
     32 H          68.7971   14.9858   32.7120 H         1 ANP1393     0.0000 
     33 H          73.7982   12.0538   29.8441 H         1 ANP1393     0.0000 
     34 H          71.5666    7.9782   29.5383 H         1 ANP1393     0.0000 
     35 H          69.8757    8.8788   31.5936 H         1 ANP1393     0.0000 
     36 H          71.2583    6.9693   31.9140 H         1 ANP1393     0.0000 
     37 H          71.7267    8.2090   33.0903 H         1 ANP1393     0.0000 
     38 H          72.7084    9.9162   29.3920 H         1 ANP1393     0.0000 
     39 H          70.1498   11.1828   30.3392 H         1 ANP1393     0.0000 
     40 H          72.5512   17.5292   31.9997 H         1 ANP1393     0.0000 
     41 H          73.6903   16.4121   31.1751 H         1 ANP1393     0.0000 
     42 H          71.5717   11.2131   27.7730 H         1 ANP1393     0.0000 
     43 H          69.6604    9.3562   28.4558 H         1 ANP1393     0.0000 
@<TRIPOS>BOND
     1    6    1 ar   
     2   28    1 ar   
     3   32    1 1    
     4    3    2 ar   
     5   25    2 1    
     6   28    2 ar   
     7    4    3 ar   
     8   26    3 1    
     9    6    4 ar   
    10   27    4 1    
    11   25    5 1    
    12   26    5 2    
    13   33    5 1    
    14   29    7 ar   
    15   22    8 1    
    16   42    8 1    
    17   31    9 ar   
    18   11   10 1    
    19   43   10 1    
    20   12   11 1    
    21   22   11 1    
    22   34   11 1    
    23   13   12 1    
    24   24   12 1    
    25   35   12 1    
    26   14   13 1    
    27   36   13 1    
    28   37   13 1    
    29   15   14 1    
    30   16   15 ar   
    31   17   15 1    
    32   18   15 ar   
    33   29   17 1    
    34   29   19 ar   
    35   31   20 ar   
    36   31   21 ar   
    37   23   22 1    
    38   38   22 1    
    39   24   23 1    
    40   25   23 1    
    41   39   23 1    
    42   40   27 1    
    43   41   27 1    
    44   30   29 1    
    45   31   30 1    
@<TRIPOS>SUBSTRUCTURE
     1 ANP1393     1 GROUP   
@<TRIPOS>SET

