#    Name: 3krx_BA1_1_INTS_M
#    Modification time : Mon Mar 24 20:24:01 2014

@<TRIPOS>MOLECULE
3krx_BA1_1_INTS_M
   70     0     9     0     0
SMALL
NO_CHARGES


@<TRIPOS>ATOM
      1 N          33.5790    2.9300   49.9910 N.am      2 SEC2        0.0000 
      2 N          33.9090    2.0370   51.1160 N.am      8 SEL2        0.0000 
      3 N          33.2490    3.8230   48.8660 N.am      5 SEP2        0.0000 
      4 O          34.9865    2.9125   51.2905 O.2       1 ALC1        0.0000 
      5 O          33.9090    2.0370   51.1160 O.2       7 ALL1        0.0000 
      6 O          36.0640    3.7880   51.4650 O.2       4 ALP1        0.0000 
      7 CA         35.1120   -4.3945   47.9115 C.3       3 GLC5        0.0000 
      8 CA         35.5390   -6.1320   49.2410 C.3       9 GLL5        0.0000 
      9 CA         34.6850   -2.6570   46.5820 C.3       6 GLP5        0.0000 
     10 CA         32.0875   -6.2925   52.1160 C.3       3 GLC5        0.0000 
     11 CA         34.1710   -6.5950   51.4110 C.3       9 GLL5        0.0000 
     12 CA         30.0040   -5.9900   52.8210 C.3       6 GLP5        0.0000 
     13 O          39.6440   -8.3245   54.3875 O.2       1 ALC1        0.0000 
     14 O          38.2990   -9.1100   55.1780 O.2       7 ALL1        0.0000 
     15 O          40.9890   -7.5390   53.5970 O.2       4 ALP1        0.0000 
     16 O          38.6825   -8.5420   53.8945 O.2       1 ALC1        0.0000 
     17 O          39.0660   -7.9740   52.6110 O.2       4 ALP1        0.0000 
     18 CA         38.8835   -6.8305   57.5985 C.3       3 GLC5        0.0000 
     19 CA         40.0300   -8.6020   57.7740 C.3       9 GLL5        0.0000 
     20 CA         37.7370   -5.0590   57.4230 C.3       6 GLP5        0.0000 
     21 N          39.2460   -6.3500   57.2500 N.am      2 SEC2        0.0000 
     22 N          39.7820   -7.3180   58.1540 N.am      8 SEL2        0.0000 
     23 N          38.7100   -5.3820   56.3460 N.am      5 SEP2        0.0000 
     24 O          40.6350   -6.3505   58.6295 O.2       1 ALC1        0.0000 
     25 O          39.7820   -7.3180   58.1540 O.2       7 ALL1        0.0000 
     26 O          41.4880   -5.3830   59.1050 O.2       4 ALP1        0.0000 
     27 CA         43.3995  -10.8325   57.9665 C.3       3 GLC5        0.0000 
     28 CA         41.5850  -10.3100   57.0360 C.3       9 GLL5        0.0000 
     29 CA         45.2140  -11.3550   58.8970 C.3       6 GLP5        0.0000 
     30 CA         42.0440  -12.1625   58.3035 C.3       3 GLC5        0.0000 
     31 CA         40.5860  -11.2860   56.9750 C.3       9 GLL5        0.0000 
     32 CA         43.5020  -13.0390   59.6320 C.3       6 GLP5        0.0000 
     33 N          35.6930  -12.0855   57.7220 N.am      2 SEC2        0.0000 
     34 N          37.0190  -11.8140   57.5170 N.am      8 SEL2        0.0000 
     35 N          34.3670  -12.3570   57.9270 N.am      5 SEP2        0.0000 
     36 CA         36.0217   -1.5315   49.6660 C.3       3 GLC5        0.0000 
     37 CA         35.1360   -1.9280   51.1000 C.3       9 GLL5        0.0000 
     38 CA         36.4720   -1.6370   48.0180 C.3       6 GLP5        0.0000 
     39 CA         37.5115    0.6710   51.4955 C.3       3 GLC5        0.0000 
     40 CA         36.0070   -0.9240   51.5280 C.3       9 GLL5        0.0000 
     41 CA         39.2210    1.6010   51.4590 C.3       6 GLP5        0.0000 
     42 CA         34.2103    1.6418   52.7097 C.3       3 GLC5        0.0000 
     43 CA         35.5970    0.4060   51.5360 C.3       9 GLL5        0.0000 
     44 CA         33.4640    2.7090   54.0950 C.3       6 GLP5        0.0000 
     45 CA         35.7143   -0.5312   49.6713 C.3       3 GLC5        0.0000 
     46 CA         34.3160    0.7430   51.1130 C.3       9 GLL5        0.0000 
     47 CA         34.0790    1.3058   49.0318 C.3       3 GLC5        0.0000 
     48 CA         33.4420   -0.2440   50.6860 C.3       9 GLL5        0.0000 
     49 CA         34.2790    2.3620   47.1640 C.3       6 GLP5        0.0000 
     50 CA         33.2481   -1.3046   52.7469 C.3       3 GLC5        0.0000 
     51 CA         32.5290   -1.6120   54.7060 C.3       6 GLP5        0.0000 
     52 CA         35.0588   -1.2728   49.3503 C.3       3 GLC5        0.0000 
     53 CA         33.8490   -1.5730   50.6790 C.3       9 GLL5        0.0000 
     54 CA         31.9685   -0.1174   51.3181 C.3       3 GLC5        0.0000 
     55 CA         30.0730    0.4270   51.8470 C.3       6 GLP5        0.0000 
     56 CA         33.9848   -9.2700   55.9832 C.3       3 GLC5        0.0000 
     57 CA         35.0040   -7.5690   54.9890 C.3       9 GLL5        0.0000 
     58 CA         33.1950  -10.9870   56.3170 C.3       6 GLP5        0.0000 
     59 CA         34.2403   -5.6400   55.4997 C.3       3 GLC5        0.0000 
     60 CA         34.5450   -7.5370   56.3100 C.3       9 GLL5        0.0000 
     61 CA         33.7060   -3.7270   55.3500 C.3       6 GLP5        0.0000 
     62 CA         36.2558   -6.3060   56.5363 C.3       3 GLC5        0.0000 
     63 CA         34.5998   -9.6562   56.7488 C.3       3 GLC5        0.0000 
     64 CA         35.3370   -8.0410   57.3420 C.3       9 GLL5        0.0000 
     65 CA         36.8708   -6.6923   57.3017 C.3       3 GLC5        0.0000 
     66 CA         37.2057   -6.7075   56.2715 C.3       3 GLC5        0.0000 
     67 CA         37.1010   -8.6160   55.5950 C.3       9 GLL5        0.0000 
     68 CA         42.9642   -8.7408   56.5950 C.3       3 GLC5        0.0000 
     69 CA         41.3140   -8.9970   57.4260 C.3       9 GLL5        0.0000 
     70 CA         44.4790   -7.8280   55.9590 C.3       6 GLP5        0.0000 
@<TRIPOS>BOND
@<TRIPOS>SUBSTRUCTURE
     1 ALC1        4 GROUP        1 X    ALC  0     ROOT ALC X 1
     2 SEC2        1 GROUP        1 X    SEC  0     **** SEC X 2
     3 GLC5        7 GROUP        1 X    GLC  0     **** GLC X 6
     4 ALP1        6 GROUP        1 Y    ALP  0     ROOT ALP Y 8
     5 SEP2        3 GROUP        1 Y    SEP  0     **** SEP Y 9
     6 GLP5        9 GROUP        1 Y    GLP  0     **** GLP Y 13
     7 ALL1        5 GROUP        1 Z    ALL  0     ROOT ALL Z 15
     8 SEL2        2 GROUP        1 Z    SEL  0     **** SEL Z 16
     9 GLL5        8 GROUP        1 Z    GLL  0     **** GLL Z 20
@<TRIPOS>SET

