#    Name: 3krx_BA1_1_ligand
#    Modification time : Mon Mar 24 20:24:01 2014

@<TRIPOS>MOLECULE
3krx_BA1_1_ligand
   64    67     1     0     0
SMALL
NO_CHARGES


@<TRIPOS>ATOM
      1 C1'        35.6030   -3.3660   51.0980 C.2       1 BA1690      0.0000 
      2 C2'        35.1360   -1.9280   51.1000 C.ar      1 BA1690      0.0000 
      3 C3'        36.0070   -0.9240   51.5280 C.ar      1 BA1690      0.0000 
      4 C4'        35.5970    0.4060   51.5360 C.ar      1 BA1690      0.0000 
      5 C5'        34.3160    0.7430   51.1130 C.ar      1 BA1690      0.0000 
      6 O5'        33.9090    2.0370   51.1160 O.3       1 BA1690      0.0000 
      7 C6'        33.4420   -0.2440   50.6860 C.ar      1 BA1690      0.0000 
      8 C7'        33.8490   -1.5730   50.6790 C.ar      1 BA1690      0.0000 
      9 O1'        36.7380   -3.6070   51.4710 O.2       1 BA1690      0.0000 
     10 N1'        34.8030   -4.3570   50.6940 N.am      1 BA1690      0.0000 
     11 N1         36.1330   -7.4520   49.1850 N.4       1 BA1690      0.0000 
     12 C2         35.5390   -6.1320   49.2410 C.3       1 BA1690      0.0000 
     13 C3         35.2280   -5.7460   50.6840 C.3       1 BA1690      0.0000 
     14 C4         34.1710   -6.5950   51.4110 C.3       1 BA1690      0.0000 
     15 C5         33.5360   -7.7490   50.6240 C.3       1 BA1690      0.0000 
     16 C6         34.5000   -8.8970   50.3190 C.3       1 BA1690      0.0000 
     17 C7         35.3010   -8.6320   49.0510 C.3       1 BA1690      0.0000 
     18 OAC        34.8250   -7.1460   52.5470 O.3       1 BA1690      0.0000 
     19 C1B        34.1880   -7.0480   53.8510 C.2       1 BA1690      0.0000 
     20 OBC        33.0630   -6.5970   54.0030 O.2       1 BA1690      0.0000 
     21 C2B        35.0040   -7.5690   54.9890 C.ar      1 BA1690      0.0000 
     22 C3B        34.5450   -7.5370   56.3100 C.ar      1 BA1690      0.0000 
     23 C4B        35.3370   -8.0410   57.3420 C.ar      1 BA1690      0.0000 
     24 O4'        34.8990   -8.0150   58.6300 O.3       1 BA1690      0.0000 
     25 C5B        36.6720   -8.6100   57.0190 C.ar      1 BA1690      0.0000 
     26 C6B        37.1010   -8.6160   55.5950 C.ar      1 BA1690      0.0000 
     27 O6'        38.2990   -9.1100   55.1780 O.3       1 BA1690      0.0000 
     28 C7B        36.2480   -8.0960   54.6450 C.ar      1 BA1690      0.0000 
     29 C8'        37.5490   -9.1690   58.0960 C.2       1 BA1690      0.0000 
     30 O8'        37.1300   -9.2850   59.2330 O.2       1 BA1690      0.0000 
     31 C9'        38.9370   -9.6000   57.7370 C.ar      1 BA1690      0.0000 
     32 CXU        40.0300   -8.6020   57.7740 C.ar      1 BA1690      0.0000 
     33 OXU        39.7820   -7.3180   58.1540 O.3       1 BA1690      0.0000 
     34 CX4        41.3140   -8.9970   57.4260 C.ar      1 BA1690      0.0000 
     35 CXE        41.5850  -10.3100   57.0360 C.ar      1 BA1690      0.0000 
     36 CXO        40.5860  -11.2860   56.9750 C.ar      1 BA1690      0.0000 
     37 CXY        39.2600  -10.9930   57.3050 C.ar      1 BA1690      0.0000 
     38 CX8        38.2060  -12.0700   57.2240 C.2       1 BA1690      0.0000 
     39 OX8        38.5350  -13.2200   56.8610 O.co2     1 BA1690      0.0000 
     40 OXI        37.0190  -11.8140   57.5170 O.co2     1 BA1690      0.0000 
     41 H          36.9569   -1.1709   51.8388 H         1 BA1690      0.0000 
     42 H          36.2429    1.1402   51.8553 H         1 BA1690      0.0000 
     43 H          32.4941    0.0043   50.3747 H         1 BA1690      0.0000 
     44 H          33.1992   -2.3085   50.3611 H         1 BA1690      0.0000 
     45 H          33.8275   -4.1769   50.3642 H         1 BA1690      0.0000 
     46 H          34.6033   -6.0942   48.6697 H         1 BA1690      0.0000 
     47 H          36.2155   -5.3753   48.8248 H         1 BA1690      0.0000 
     48 H          36.1657   -5.8165   51.2599 H         1 BA1690      0.0000 
     49 H          33.3780   -5.9268   51.7478 H         1 BA1690      0.0000 
     50 H          33.1369   -7.3549   49.6761 H         1 BA1690      0.0000 
     51 H          32.6814   -8.1416   51.1972 H         1 BA1690      0.0000 
     52 H          33.9290   -9.8202   50.1997 H         1 BA1690      0.0000 
     53 H          35.1852   -9.0206   51.1603 H         1 BA1690      0.0000 
     54 H          35.9124   -9.5235   48.8412 H         1 BA1690      0.0000 
     55 H          34.5915   -8.5211   48.2162 H         1 BA1690      0.0000 
     56 H          33.6201   -7.1402   56.5195 H         1 BA1690      0.0000 
     57 H          36.5339   -8.0937   53.6438 H         1 BA1690      0.0000 
     58 H          42.0874   -8.3085   57.4549 H         1 BA1690      0.0000 
     59 H          42.5598  -10.5707   56.7830 H         1 BA1690      0.0000 
     60 H          40.8342  -12.2472   56.6788 H         1 BA1690      0.0000 
     61 H          34.7394    2.5690   51.2814 H         1 BA1690      0.0000 
     62 H          35.6308   -8.4425   59.1608 H         1 BA1690      0.0000 
     63 H          38.4885   -8.6369   54.3176 H         1 BA1690      0.0000 
     64 H          40.6709   -6.9545   58.4328 H         1 BA1690      0.0000 
@<TRIPOS>BOND
     1    2    1 1    
     2    9    1 2    
     3   10    1 am   
     4    3    2 ar   
     5    8    2 ar   
     6    4    3 ar   
     7   41    3 1    
     8    5    4 ar   
     9   42    4 1    
    10    6    5 1    
    11    7    5 ar   
    12   61    6 1    
    13    8    7 ar   
    14   43    7 1    
    15   44    8 1    
    16   13   10 1    
    17   45   10 1    
    18   12   11 1    
    19   17   11 1    
    20   13   12 1    
    21   46   12 1    
    22   47   12 1    
    23   14   13 1    
    24   48   13 1    
    25   15   14 1    
    26   18   14 1    
    27   49   14 1    
    28   16   15 1    
    29   50   15 1    
    30   51   15 1    
    31   17   16 1    
    32   52   16 1    
    33   53   16 1    
    34   54   17 1    
    35   55   17 1    
    36   19   18 1    
    37   20   19 2    
    38   21   19 1    
    39   22   21 ar   
    40   28   21 ar   
    41   23   22 ar   
    42   56   22 1    
    43   24   23 1    
    44   25   23 ar   
    45   62   24 1    
    46   26   25 ar   
    47   29   25 1    
    48   27   26 1    
    49   28   26 ar   
    50   63   27 1    
    51   57   28 1    
    52   30   29 2    
    53   31   29 1    
    54   32   31 ar   
    55   37   31 ar   
    56   33   32 1    
    57   34   32 ar   
    58   64   33 1    
    59   35   34 ar   
    60   58   34 1    
    61   36   35 ar   
    62   59   35 1    
    63   37   36 ar   
    64   60   36 1    
    65   38   37 1    
    66   39   38 ar   
    67   40   38 ar   
@<TRIPOS>SUBSTRUCTURE
     1 BA1690      1 GROUP   
@<TRIPOS>SET

