#    Name: 2azy_CHD_1_INTS_M
#    Modification time : Mon Mar 24 19:45:39 2014

@<TRIPOS>MOLECULE
2azy_CHD_1_INTS_M
   70     0     6     0     0
SMALL
NO_CHARGES


@<TRIPOS>ATOM
      1 CA         39.9075   20.1755   15.8815 C.3       2 GLC5        0.0000 
      2 CA         38.6790   19.0730   14.5290 C.3       6 GLL5        0.0000 
      3 CA         41.1360   21.2780   17.2340 C.3       4 GLP5        0.0000 
      4 CA         39.9100   20.2570   12.5125 C.3       2 GLC5        0.0000 
      5 CA         39.1030   18.3330   13.1670 C.3       6 GLL5        0.0000 
      6 CA         40.7170   22.1810   11.8580 C.3       4 GLP5        0.0000 
      7 CA         40.9380   18.1855   12.3870 C.3       2 GLC5        0.0000 
      8 CA         42.7730   18.0380   11.6070 C.3       4 GLP5        0.0000 
      9 CA         36.8890   15.9330   11.6150 C.3       2 GLC5        0.0000 
     10 CA         36.6300   17.6550   12.7240 C.3       6 GLL5        0.0000 
     11 CA         37.1480   14.2110   10.5060 C.3       4 GLP5        0.0000 
     12 O          34.2685   15.4200   13.5040 O.2       1 ALC1        0.0000 
     13 O          35.3820   15.2020   14.2550 O.2       5 ALL1        0.0000 
     14 O          33.1550   15.6380   12.7530 O.2       3 ALP1        0.0000 
     15 CA         34.8660   17.2355   17.5750 C.3       2 GLC5        0.0000 
     16 CA         36.2770   16.2110   16.3810 C.3       6 GLL5        0.0000 
     17 CA         33.4550   18.2600   18.7690 C.3       4 GLP5        0.0000 
     18 CA         33.5925   14.4785   18.0725 C.3       2 GLC5        0.0000 
     19 CA         35.2680   13.9910   17.6310 C.3       6 GLL5        0.0000 
     20 CA         31.9170   14.9660   18.5140 C.3       4 GLP5        0.0000 
     21 CA         33.8735   12.8610   19.2030 C.3       2 GLC5        0.0000 
     22 CA         36.0010   12.9320   18.6150 C.3       6 GLL5        0.0000 
     23 CA         31.7460   12.7900   19.7910 C.3       4 GLP5        0.0000 
     24 CA         35.7020   12.9425   20.5320 C.3       2 GLC5        0.0000 
     25 CA         35.4030   12.9530   22.4490 C.3       4 GLP5        0.0000 
     26 CA         35.2830   11.2900   19.5240 C.3       2 GLC5        0.0000 
     27 CA         34.5650    9.6480   20.4330 C.3       4 GLP5        0.0000 
     28 CA         35.7420   16.8275   19.9120 C.3       2 GLC5        0.0000 
     29 CA         37.4210   15.6200   19.3460 C.3       6 GLL5        0.0000 
     30 CA         34.0630   18.0350   20.4780 C.3       4 GLP5        0.0000 
     31 CA         37.2400   15.1650   21.2120 C.3       2 GLC5        0.0000 
     32 CA         37.0590   14.7100   23.0780 C.3       4 GLP5        0.0000 
     33 CA         36.5370   17.4570   19.9720 C.3       2 GLC5        0.0000 
     34 CA         35.6530   19.2940   20.5980 C.3       4 GLP5        0.0000 
     35 CA         38.3530   17.1595   20.0145 C.3       2 GLC5        0.0000 
     36 CA         39.2850   18.6990   20.6830 C.3       4 GLP5        0.0000 
     37 CA         35.0995   19.6060   17.3590 C.3       2 GLC5        0.0000 
     38 CA         37.0230   19.4980   16.3350 C.3       6 GLL5        0.0000 
     39 CA         33.1760   19.7140   18.3830 C.3       4 GLP5        0.0000 
     40 CA         35.2535   20.1770   15.5535 C.3       2 GLC5        0.0000 
     41 CA         33.4840   20.8560   14.7720 C.3       4 GLP5        0.0000 
     42 CA         36.3380   19.3960   18.4665 C.3       2 GLC5        0.0000 
     43 CA         41.7055   13.6010   18.5265 C.3       2 GLC5        0.0000 
     44 CA         40.1870   12.9400   19.5380 C.3       6 GLL5        0.0000 
     45 CA         43.2240   14.2620   17.5150 C.3       4 GLP5        0.0000 
     46 CA         41.5990   12.4370   20.4585 C.3       2 GLC5        0.0000 
     47 CA         43.0110   11.9340   21.3790 C.3       4 GLP5        0.0000 
     48 CA         40.6505   14.0980   21.0380 C.3       2 GLC5        0.0000 
     49 CA         41.1140   15.2560   22.5380 C.3       4 GLP5        0.0000 
     50 CA         36.5480   10.3645   20.1400 C.3       2 GLC5        0.0000 
     51 CA         38.5310   11.0810   19.8470 C.3       6 GLL5        0.0000 
     52 CA         40.6685    9.7430   17.7085 C.3       2 GLC5        0.0000 
     53 CA         38.8260    9.8870   18.8180 C.3       6 GLL5        0.0000 
     54 CA         42.5110    9.5990   16.5990 C.3       4 GLP5        0.0000 
     55 CA         34.4865   19.4413   14.5862 C.3       2 GLC5        0.0000 
     56 CA         34.8350   17.6850   14.7290 C.3       6 GLL5        0.0000 
     57 CA         32.9913   16.6955   14.6657 C.3       2 GLC5        0.0000 
     58 CA         31.0210   16.4350   14.3260 C.3       4 GLP5        0.0000 
     59 CA         34.2082   17.6080   16.8873 C.3       2 GLC5        0.0000 
     60 CA         40.6487   16.6022   16.9748 C.3       2 GLC5        0.0000 
     61 CA         38.8630   16.7840   16.8800 C.3       6 GLL5        0.0000 
     62 CA         42.3620   17.1880   16.8830 C.3       4 GLP5        0.0000 
     63 CA         39.6613   17.0512   18.5817 C.3       2 GLC5        0.0000 
     64 CA         40.3870   18.0860   20.0970 C.3       4 GLP5        0.0000 
     65 CA         36.0270   12.8365   15.9395 C.3       2 GLC5        0.0000 
     66 CA         36.5220   14.6670   16.9170 C.3       6 GLL5        0.0000 
     67 CA         36.1590   11.3440   14.6050 C.3       4 GLP5        0.0000 
     68 CA         36.4862   12.1805   16.5420 C.3       2 GLC5        0.0000 
     69 CA         36.9970   12.4115   21.0785 C.3       2 GLC5        0.0000 
     70 CA         38.6510   12.6590   19.5690 C.3       6 GLL5        0.0000 
@<TRIPOS>BOND
@<TRIPOS>SUBSTRUCTURE
     1 ALC1       12 GROUP        1 X    ALC  0     ROOT ALC X 1
     2 GLC5        1 GROUP        1 X    GLC  0     **** GLC X 6
     3 ALP1       14 GROUP        1 Y    ALP  0     ROOT ALP Y 8
     4 GLP5        3 GROUP        1 Y    GLP  0     **** GLP Y 13
     5 ALL1       13 GROUP        1 Z    ALL  0     ROOT ALL Z 15
     6 GLL5        2 GROUP        1 Z    GLL  0     **** GLL Z 20
@<TRIPOS>SET

