#    Name: 2azy_CHD_1_ligand
#    Modification time : Mon Mar 24 19:45:39 2014

@<TRIPOS>MOLECULE
2azy_CHD_1_ligand
   68    71     1     0     0
SMALL
NO_CHARGES


@<TRIPOS>ATOM
      1 C1         38.6790   19.0730   14.5290 C.3       1 CHD237      0.0000 
      2 C2         39.1030   18.3330   13.1670 C.3       1 CHD237      0.0000 
      3 C3         37.9160   18.3580   12.1490 C.3       1 CHD237      0.0000 
      4 O3         38.3200   17.6660   10.9270 O.3       1 CHD237      0.0000 
      5 C4         36.6300   17.6550   12.7240 C.3       1 CHD237      0.0000 
      6 C5         36.1430   18.3680   14.0720 C.3       1 CHD237      0.0000 
      7 C6         34.8350   17.6850   14.7290 C.3       1 CHD237      0.0000 
      8 C7         35.0880   16.2270   15.2820 C.3       1 CHD237      0.0000 
      9 O7         35.3820   15.2020   14.2550 O.3       1 CHD237      0.0000 
     10 C8         36.2770   16.2110   16.3810 C.3       1 CHD237      0.0000 
     11 C9         37.6540   16.8440   15.7180 C.3       1 CHD237      0.0000 
     12 C10        37.3690   18.4060   15.1940 C.3       1 CHD237      0.0000 
     13 C11        38.8630   16.7840   16.8800 C.3       1 CHD237      0.0000 
     14 C12        39.0080   15.2490   17.2530 C.3       1 CHD237      0.0000 
     15 O12        39.3890   14.4850   16.0490 O.3       1 CHD237      0.0000 
     16 C13        37.6390   14.6030   18.0050 C.3       1 CHD237      0.0000 
     17 C14        36.5220   14.6670   16.9170 C.3       1 CHD237      0.0000 
     18 C15        35.2680   13.9910   17.6310 C.3       1 CHD237      0.0000 
     19 C16        36.0010   12.9320   18.6150 C.3       1 CHD237      0.0000 
     20 C17        37.6260   13.1020   18.3430 C.3       1 CHD237      0.0000 
     21 C18        37.4210   15.6200   19.3460 C.3       1 CHD237      0.0000 
     22 C19        37.0230   19.4980   16.3350 C.3       1 CHD237      0.0000 
     23 C20        38.6510   12.6590   19.5690 C.3       1 CHD237      0.0000 
     24 C21        40.1870   12.9400   19.5380 C.3       1 CHD237      0.0000 
     25 C22        38.5310   11.0810   19.8470 C.3       1 CHD237      0.0000 
     26 C23        38.8260    9.8870   18.8180 C.3       1 CHD237      0.0000 
     27 O25        38.6450    7.6320   18.1540 O.co2     1 CHD237      0.0000 
     28 C24        38.6730    8.4840   19.2060 C.2       1 CHD237      0.0000 
     29 O26        38.5710    8.0740   20.3960 O.co2     1 CHD237      0.0000 
     30 H          38.4599   20.1025   14.3071 H         1 CHD237      0.0000 
     31 H          39.4916   18.9958   15.2295 H         1 CHD237      0.0000 
     32 H          39.3538   17.3170   13.4058 H         1 CHD237      0.0000 
     33 H          39.9450   18.8552   12.7542 H         1 CHD237      0.0000 
     34 H          37.6692   19.3805   11.9416 H         1 CHD237      0.0000 
     35 H          36.8571   16.6274   12.9494 H         1 CHD237      0.0000 
     36 H          35.8351   17.7215   12.0015 H         1 CHD237      0.0000 
     37 H          35.9092   19.3980   13.8570 H         1 CHD237      0.0000 
     38 H          34.0623   17.6474   13.9658 H         1 CHD237      0.0000 
     39 H          34.5026   18.3224   15.5440 H         1 CHD237      0.0000 
     40 H          34.1872   15.9310   15.8487 H         1 CHD237      0.0000 
     41 H          35.9961   16.8089   17.1994 H         1 CHD237      0.0000 
     42 H          37.9386   16.2538   14.9111 H         1 CHD237      0.0000 
     43 H          38.5201   17.3293   17.7014 H         1 CHD237      0.0000 
     44 H          39.7355   17.1344   16.4267 H         1 CHD237      0.0000 
     45 H          39.8014   15.1750   18.0069 H         1 CHD237      0.0000 
     46 H          36.8132   14.0575   16.0997 H         1 CHD237      0.0000 
     47 H          34.7161   13.4637   16.9354 H         1 CHD237      0.0000 
     48 H          34.7796   14.6925   18.2105 H         1 CHD237      0.0000 
     49 H          35.7297   11.9607   18.3408 H         1 CHD237      0.0000 
     50 H          35.8127   13.1960   19.6085 H         1 CHD237      0.0000 
     51 H          37.8334   12.5541   17.4608 H         1 CHD237      0.0000 
     52 H          38.2414   13.1111   20.5039 H         1 CHD237      0.0000 
     53 H          37.4705   10.9030   20.2601 H         1 CHD237      0.0000 
     54 H          39.1621   10.8672   20.7867 H         1 CHD237      0.0000 
     55 H          39.8795   10.0801   18.4327 H         1 CHD237      0.0000 
     56 H          38.1887   10.1182   17.9037 H         1 CHD237      0.0000 
     57 H          38.2138   15.6061   19.9554 H         1 CHD237      0.0000 
     58 H          37.2788   16.5711   19.0716 H         1 CHD237      0.0000 
     59 H          36.6273   15.3505   19.8914 H         1 CHD237      0.0000 
     60 H          37.8285   19.7360   16.8778 H         1 CHD237      0.0000 
     61 H          36.6731   20.3481   15.9415 H         1 CHD237      0.0000 
     62 H          36.3290   19.1624   16.9720 H         1 CHD237      0.0000 
     63 H          40.6429   12.6027   20.3616 H         1 CHD237      0.0000 
     64 H          40.6294   12.4995   18.7568 H         1 CHD237      0.0000 
     65 H          40.3844   13.9182   19.4734 H         1 CHD237      0.0000 
     66 H          38.6659   18.3854   10.3246 H         1 CHD237      0.0000 
     67 H          34.9308   15.5304   13.4252 H         1 CHD237      0.0000 
     68 H          38.5609   14.4543   15.4893 H         1 CHD237      0.0000 
@<TRIPOS>BOND
     1    2    1 1    
     2   12    1 1    
     3   30    1 1    
     4   31    1 1    
     5    3    2 1    
     6   32    2 1    
     7   33    2 1    
     8    4    3 1    
     9    5    3 1    
    10   34    3 1    
    11   66    4 1    
    12    6    5 1    
    13   35    5 1    
    14   36    5 1    
    15    7    6 1    
    16   12    6 1    
    17   37    6 1    
    18    8    7 1    
    19   38    7 1    
    20   39    7 1    
    21    9    8 1    
    22   10    8 1    
    23   40    8 1    
    24   67    9 1    
    25   11   10 1    
    26   17   10 1    
    27   41   10 1    
    28   12   11 1    
    29   13   11 1    
    30   42   11 1    
    31   22   12 1    
    32   14   13 1    
    33   43   13 1    
    34   44   13 1    
    35   15   14 1    
    36   16   14 1    
    37   45   14 1    
    38   68   15 1    
    39   17   16 1    
    40   20   16 1    
    41   21   16 1    
    42   18   17 1    
    43   46   17 1    
    44   19   18 1    
    45   47   18 1    
    46   48   18 1    
    47   20   19 1    
    48   49   19 1    
    49   50   19 1    
    50   23   20 1    
    51   51   20 1    
    52   57   21 1    
    53   58   21 1    
    54   59   21 1    
    55   60   22 1    
    56   61   22 1    
    57   62   22 1    
    58   24   23 1    
    59   25   23 1    
    60   52   23 1    
    61   63   24 1    
    62   64   24 1    
    63   65   24 1    
    64   26   25 1    
    65   53   25 1    
    66   54   25 1    
    67   28   26 1    
    68   55   26 1    
    69   56   26 1    
    70   28   27 ar   
    71   29   28 ar   
@<TRIPOS>SUBSTRUCTURE
     1 CHD237      1 GROUP   
@<TRIPOS>SET

