#    Name: 3OF3_6_CAVITY_N1_ALL.mol2
#    Modification time : Tue Mar 11 20:09:29 2014

@<TRIPOS>MOLECULE
3OF3_6_CAVITY_N1_ALL.mol2
  117     0     6     0     0
SMALL
NO_CHARGES


@<TRIPOS>ATOM
      1 N          55.3828   29.6084   45.2615 N.2       2 ALA2        0.0000 
      2 NZ         55.9860   30.2458   44.0450 N.2       3 LYS4        0.0000 
      3 NZ         56.5892   30.8832   42.8285 N.2       3 LYS4        0.0000 
      4 O          55.4188   29.1513   43.1903 O.2       2 ALA2        0.0000 
      5 CA         54.6633   31.9636   47.9883 C.3       5 GLY6        0.0000 
      6 N          55.2665   32.6010   46.7718 N.2       2 ALA2        0.0000 
      7 CZ         55.8696   33.2384   45.5552 C.ar      4 PHE5        0.0000 
      8 CZ         54.6993   31.5065   45.9171 C.ar      4 PHE5        0.0000 
      9 CZ         60.6316   37.6302   44.6688 C.ar      4 PHE5        0.0000 
     10 N          58.2548   34.6236   47.4637 N.2       2 ALA2        0.0000 
     11 N          58.8580   35.2610   46.2472 N.2       2 ALA2        0.0000 
     12 CZ         59.4612   35.8984   45.0306 C.ar      4 PHE5        0.0000 
     13 CZ         60.0644   36.5357   43.8141 C.ar      4 PHE5        0.0000 
     14 CZ         60.6676   37.1731   42.5976 C.ar      4 PHE5        0.0000 
     15 CZ         57.0844   32.8917   47.8255 C.ar      4 PHE5        0.0000 
     16 N          57.6876   33.5291   46.6090 N.2       2 ALA2        0.0000 
     17 CZ         58.2908   34.1665   45.3925 C.ar      4 PHE5        0.0000 
     18 CZ         58.8940   34.8039   44.1760 C.ar      4 PHE5        0.0000 
     19 CZ         59.4972   35.4413   42.9595 C.ar      4 PHE5        0.0000 
     20 CA         55.9141   31.1599   48.1874 C.3       5 GLY6        0.0000 
     21 CA         56.5172   31.7973   46.9708 C.3       5 GLY6        0.0000 
     22 CZ         57.1204   32.4347   45.7543 C.ar      4 PHE5        0.0000 
     23 CZ         57.7236   33.0721   44.5378 C.ar      4 PHE5        0.0000 
     24 CA         55.9500   30.7028   46.1162 C.3       5 GLY6        0.0000 
     25 CZ         56.5532   31.3402   44.8997 C.ar      4 PHE5        0.0000 
     26 CZ         57.1564   31.9776   43.6832 C.ar      4 PHE5        0.0000 
     27 N          58.8220   35.7180   48.3183 N.2       2 ALA2        0.0000 
     28 N          59.4252   36.3554   47.1018 N.2       2 ALA2        0.0000 
     29 CZ         60.0284   36.9928   45.8853 C.ar      4 PHE5        0.0000 
     30 CZ         60.6400   36.0088   49.3721 C.ar      4 PHE5        0.0000 
     31 CA         60.7564   33.0162   47.8618 C.3       5 GLY6        0.0000 
     32 DU         61.3596   33.6536   46.6453 H         6 CUB7        0.0000 
     33 DU         61.9628   34.2910   45.4288 H         6 CUB7        0.0000 
     34 DU         62.5659   34.9284   44.2123 H         6 CUB7        0.0000 
     35 CA         60.1892   31.9218   47.0072 C.3       5 GLY6        0.0000 
     36 CA         60.7924   32.5591   45.7907 C.3       5 GLY6        0.0000 
     37 DU         61.3956   33.1965   44.5741 H         6 CUB7        0.0000 
     38 O          61.9987   33.8339   43.3576 O.2       2 ALA2        0.0000 
     39 N          62.6019   34.4713   42.1411 N.2       2 ALA2        0.0000 
     40 CA         60.2252   31.4647   44.9360 C.3       5 GLY6        0.0000 
     41 O          60.8284   32.1021   43.7195 O.2       2 ALA2        0.0000 
     42 CA         50.4157   32.3661   42.3940 C.3       5 GLY6        0.0000 
     43 CA         51.0189   33.0034   41.1775 C.3       5 GLY6        0.0000 
     44 NZ         49.2453   30.6342   42.7558 N.2       3 LYS4        0.0000 
     45 NZ         49.8485   31.2716   41.5393 N.2       3 LYS4        0.0000 
     46 CA         50.4517   31.9090   40.3228 C.3       5 GLY6        0.0000 
     47 O          51.0549   32.5464   39.1063 O.2       2 ALA2        0.0000 
     48 NZ         49.2813   30.1771   40.6846 N.2       3 LYS4        0.0000 
     49 O          49.8845   30.8145   39.4681 O.2       2 ALA2        0.0000 
     50 O          48.7141   29.0827   39.8300 O.2       2 ALA2        0.0000 
     51 O          49.3173   29.7201   38.6135 O.2       2 ALA2        0.0000 
     52 NZ         48.5977   32.0753   41.3402 N.2       3 LYS4        0.0000 
     53 NZ         48.0305   30.9808   40.4856 N.2       3 LYS4        0.0000 
     54 O          48.6337   31.6182   39.2690 O.2       2 ALA2        0.0000 
     55 CA         59.6580   30.3702   44.0813 C.3       5 GLY6        0.0000 
     56 CA         60.2612   31.0076   42.8648 C.3       5 GLY6        0.0000 
     57 CZ         61.3236   34.1107   48.7165 C.ar      4 PHE5        0.0000 
     58 DU         61.9268   34.7480   47.5000 H         6 CUB7        0.0000 
     59 CA         51.0633   30.9250   43.8096 C.3       5 GLY6        0.0000 
     60 CA         51.6665   31.5624   42.5931 C.3       5 GLY6        0.0000 
     61 CZ         52.2697   32.1998   41.3766 C.ar      4 PHE5        0.0000 
     62 N          52.8728   32.8371   40.1600 N.2       2 ALA2        0.0000 
     63 NZ         50.4961   29.8305   42.9549 N.2       3 LYS4        0.0000 
     64 OG         51.0993   30.4679   41.7384 O.2       1 SER1        0.0000 
     65 O          51.7025   31.1053   40.5219 O.2       2 ALA2        0.0000 
     66 O          52.3056   31.7427   39.3054 O.2       2 ALA2        0.0000 
     67 O          49.9289   28.7361   42.1003 O.2       2 ALA2        0.0000 
     68 OG         50.5321   29.3735   40.8837 O.2       1 SER1        0.0000 
     69 OG         51.1353   30.0108   39.6672 O.2       1 SER1        0.0000 
     70 OG         49.9649   28.2790   40.0291 O.2       1 SER1        0.0000 
     71 N          54.1321   30.4121   45.0624 N.2       2 ALA2        0.0000 
     72 CZ         54.7352   31.0495   43.8459 C.ar      4 PHE5        0.0000 
     73 N          53.5649   29.3176   44.2078 N.2       2 ALA2        0.0000 
     74 CZ         54.1680   29.9550   42.9912 C.ar      4 PHE5        0.0000 
     75 NZ         54.7712   30.5924   41.7747 N.2       3 LYS4        0.0000 
     76 O          55.3744   31.2298   40.5582 O.2       2 ALA2        0.0000 
     77 OG         53.6008   28.8605   42.1366 O.2       1 SER1        0.0000 
     78 OG         54.2040   29.4979   40.9201 O.2       1 SER1        0.0000 
     79 CZ         53.4485   32.3102   45.7180 C.ar      4 PHE5        0.0000 
     80 CA         52.8813   31.2158   44.8633 C.3       5 GLY6        0.0000 
     81 CA         52.3141   30.1213   44.0087 C.3       5 GLY6        0.0000 
     82 CZ         52.9173   30.7587   42.7922 C.ar      4 PHE5        0.0000 
     83 CZ         53.5204   31.3961   41.5756 C.ar      4 PHE5        0.0000 
     84 CZ         54.1236   32.0335   40.3591 C.ar      4 PHE5        0.0000 
     85 CA         51.7469   29.0268   43.1540 C.3       5 GLY6        0.0000 
     86 OG         52.3501   29.6642   41.9375 O.2       1 SER1        0.0000 
     87 OG         52.9532   30.3016   40.7210 O.2       1 SER1        0.0000 
     88 O          53.5564   30.9390   39.5045 O.2       2 ALA2        0.0000 
     89 CZ         60.0728   34.9143   48.5174 C.ar      4 PHE5        0.0000 
     90 DU         60.6760   35.5517   47.3009 H         6 CUB7        0.0000 
     91 DU         61.2792   36.1891   46.0844 H         6 CUB7        0.0000 
     92 DU         61.8824   36.8265   44.8679 H         6 CUB7        0.0000 
     93 CZ         59.5056   33.8199   47.6628 C.ar      4 PHE5        0.0000 
     94 DU         60.1088   34.4573   46.4462 H         6 CUB7        0.0000 
     95 DU         60.7120   35.0947   45.2297 H         6 CUB7        0.0000 
     96 DU         61.3152   35.7321   44.0132 H         6 CUB7        0.0000 
     97 N          61.9183   36.3694   42.7967 N.2       2 ALA2        0.0000 
     98 CA         58.9384   32.7254   46.8081 C.3       5 GLY6        0.0000 
     99 DU         59.5416   33.3628   45.5916 H         6 CUB7        0.0000 
    100 O          60.1448   34.0002   44.3751 O.2       2 ALA2        0.0000 
    101 O          60.7480   34.6376   43.1585 O.2       2 ALA2        0.0000 
    102 O          61.3511   35.2750   41.9420 O.2       2 ALA2        0.0000 
    103 CA         58.3712   31.6310   45.9534 C.3       5 GLY6        0.0000 
    104 CA         58.9744   32.2684   44.7369 C.3       5 GLY6        0.0000 
    105 O          59.5776   32.9058   43.5204 O.2       2 ALA2        0.0000 
    106 CA         64.4643   32.6836   45.8270 C.3       5 GLY6        0.0000 
    107 CA         57.8040   30.5365   45.0988 C.3       5 GLY6        0.0000 
    108 CA         58.4072   31.1739   43.8822 C.3       5 GLY6        0.0000 
    109 NZ         59.0104   31.8113   42.6657 N.2       3 LYS4        0.0000 
    110 CA         57.2368   29.4421   44.2441 C.3       5 GLY6        0.0000 
    111 N          62.6104   32.8499   46.8444 N.2       2 ALA2        0.0000 
    112 N          63.2135   33.4873   45.6279 N.2       2 ALA2        0.0000 
    113 CA         62.0432   31.7555   45.9897 C.3       5 GLY6        0.0000 
    114 CA         62.6463   32.3928   44.7732 C.3       5 GLY6        0.0000 
    115 CA         63.2495   33.0302   43.5567 C.3       5 GLY6        0.0000 
    116 N          62.0791   31.2984   43.9186 N.2       2 ALA2        0.0000 
    117 CA         62.6823   31.9358   42.7021 C.3       5 GLY6        0.0000 
@<TRIPOS>BOND
@<TRIPOS>SUBSTRUCTURE
     1 SER1       64 GROUP   
     2 ALA2        1 GROUP   
     3 LYS4        2 GROUP   
     4 PHE5        7 GROUP   
     5 GLY6        5 GROUP   
     6 CUB7       32 GROUP   
@<TRIPOS>SET

