#    Name: 3of3_DIH_6_INTS_M
#    Modification time : Tue Mar 25 04:31:16 2014

@<TRIPOS>MOLECULE
3of3_DIH_6_INTS_M
   47     0     6     0     0
SMALL
NO_CHARGES


@<TRIPOS>ATOM
      1 O          53.2975   34.1740   39.8870 O.2       1 ALC1        0.0000 
      2 O          53.0480   32.9860   40.3190 O.2       5 ALL1        0.0000 
      3 O          53.5470   35.3620   39.4550 O.2       3 ALP1        0.0000 
      4 CA         53.0885   33.6685   42.4130 C.3       2 GLC5        0.0000 
      5 CA         51.8860   33.0400   41.1430 C.3       6 GLL5        0.0000 
      6 CA         54.2910   34.2970   43.6830 C.3       4 GLP5        0.0000 
      7 CA         51.1210   33.3915   43.0350 C.3       2 GLC5        0.0000 
      8 CA         50.3560   33.7430   44.9270 C.3       4 GLP5        0.0000 
      9 CA         52.4195   34.4200   39.7205 C.3       2 GLC5        0.0000 
     10 CA         52.9530   35.8000   38.2980 C.3       4 GLP5        0.0000 
     11 CA         51.2860   34.8710   41.7970 C.3       2 GLC5        0.0000 
     12 CA         50.6860   36.7020   42.4510 C.3       4 GLP5        0.0000 
     13 CA         48.7815   33.0900   40.4915 C.3       2 GLC5        0.0000 
     14 CA         49.7890   31.8600   41.6990 C.3       6 GLL5        0.0000 
     15 CA         47.7740   34.3200   39.2840 C.3       4 GLP5        0.0000 
     16 CA         50.0725   32.8015   43.3130 C.3       2 GLC5        0.0000 
     17 O          47.6545   31.2390   41.8440 O.2       1 ALC1        0.0000 
     18 O          48.6350   31.3590   41.0100 O.2       5 ALL1        0.0000 
     19 O          46.6740   31.1190   42.6780 O.2       3 ALP1        0.0000 
     20 CA         50.5650   29.4395   44.3130 C.3       2 GLC5        0.0000 
     21 CA         50.3100   30.7750   42.6370 C.3       6 GLL5        0.0000 
     22 CA         50.8200   28.1040   45.9890 C.3       4 GLP5        0.0000 
     23 CA         50.0725   31.5425   44.2805 C.3       2 GLC5        0.0000 
     24 CA         49.8350   32.3100   45.9240 C.3       4 GLP5        0.0000 
     25 CA         52.4030   27.5965   40.7135 C.3       2 GLC5        0.0000 
     26 CA         51.8080   28.8420   42.3550 C.3       6 GLL5        0.0000 
     27 CA         52.9980   26.3510   39.0720 C.3       4 GLP5        0.0000 
     28 CA         50.9500   27.9465   43.7365 C.3       2 GLC5        0.0000 
     29 CA         50.0920   27.0510   45.1180 C.3       4 GLP5        0.0000 
     30 CA         53.6785   27.6265   40.5425 C.3       2 GLC5        0.0000 
     31 CA         54.3590   28.9020   42.0130 C.3       6 GLL5        0.0000 
     32 O          56.5285   29.4045   41.7195 O.2       1 ALC1        0.0000 
     33 O          55.4640   29.4340   42.6310 O.2       5 ALL1        0.0000 
     34 O          57.5930   29.3750   40.8080 O.2       3 ALP1        0.0000 
     35 CA         56.1455   28.4035   44.3360 C.3       2 GLC5        0.0000 
     36 CA         55.1140   30.1030   43.7400 C.3       6 GLL5        0.0000 
     37 CA         57.1770   26.7040   44.9320 C.3       4 GLP5        0.0000 
     38 CA         50.4245   33.7602   40.0318 C.3       2 GLC5        0.0000 
     39 CA         50.8820   32.0050   40.6680 C.3       6 GLL5        0.0000 
     40 CA         49.4650   34.9980   39.1580 C.3       4 GLP5        0.0000 
     41 CA         52.1280   28.8857   44.6332 C.3       2 GLC5        0.0000 
     42 CA         53.2080   29.2610   42.7060 C.3       6 GLL5        0.0000 
     43 CA         54.8140   31.9108   43.3222 C.3       2 GLC5        0.0000 
     44 CA         53.6640   30.0740   43.8490 C.3       6 GLL5        0.0000 
     45 CA         55.2390   33.7330   42.8500 C.3       4 GLP5        0.0000 
     46 CA         53.7439   27.6037   43.1727 C.3       2 GLC5        0.0000 
     47 CA         53.9390   25.6820   43.2850 C.3       4 GLP5        0.0000 
@<TRIPOS>BOND
@<TRIPOS>SUBSTRUCTURE
     1 ALC1        1 GROUP        1 X    ALC  0     ROOT ALC X 1
     2 GLC5        4 GROUP        1 X    GLC  0     **** GLC X 6
     3 ALP1        3 GROUP        1 Y    ALP  0     ROOT ALP Y 8
     4 GLP5        6 GROUP        1 Y    GLP  0     **** GLP Y 13
     5 ALL1        2 GROUP        1 Z    ALL  0     ROOT ALL Z 15
     6 GLL5        5 GROUP        1 Z    GLL  0     **** GLL Z 20
@<TRIPOS>SET

