#    Name: 3of3_DIH_6_ligand
#    Modification time : Tue Mar 25 04:31:16 2014

@<TRIPOS>MOLECULE
3of3_DIH_6_ligand
   38    40     1     0     0
SMALL
NO_CHARGES


@<TRIPOS>ATOM
      1 O5'        53.0480   32.9860   40.3190 O.3       1 DIH500      0.0000 
      2 C5'        51.8860   33.0400   41.1430 C.3       1 DIH500      0.0000 
      3 C4'        50.8820   32.0050   40.6680 C.3       1 DIH500      0.0000 
      4 C6'        51.5800   30.6310   40.6200 C.3       1 DIH500      0.0000 
      5 C3'        49.7890   31.8600   41.6990 C.3       1 DIH500      0.0000 
      6 O3'        48.6350   31.3590   41.0100 O.3       1 DIH500      0.0000 
      7 C2'        50.3100   30.7750   42.6370 C.3       1 DIH500      0.0000 
      8 N1'        50.9440   29.8370   41.6850 N.4       1 DIH500      0.0000 
      9 C10        51.8080   28.8420   42.3550 C.3       1 DIH500      0.0000 
     10 C9         53.2080   29.2610   42.7060 C.2       1 DIH500      0.0000 
     11 C8         54.3590   28.9020   42.0130 C.2       1 DIH500      0.0000 
     12 N7         55.4640   29.4340   42.6310 N.pl3     1 DIH500      0.0000 
     13 C5         55.1140   30.1030   43.7400 C.3       1 DIH500      0.0000 
     14 C6         55.8200   30.8620   44.7690 C.2       1 DIH500      0.0000 
     15 O6         57.0870   30.9170   44.6800 O.2       1 DIH500      0.0000 
     16 N1         55.1250   31.4910   45.8090 N.am      1 DIH500      0.0000 
     17 C2         53.7020   31.3590   45.8340 C.2       1 DIH500      0.0000 
     18 N3         53.0030   30.6770   44.8840 N.2       1 DIH500      0.0000 
     19 C4         53.6640   30.0740   43.8490 C.3       1 DIH500      0.0000 
     20 H          51.4039   34.0234   41.1006 H         1 DIH500      0.0000 
     21 H          52.1220   32.8260   42.1917 H         1 DIH500      0.0000 
     22 H          50.4943   32.2381   39.7382 H         1 DIH500      0.0000 
     23 H          52.6240   30.7732   40.8109 H         1 DIH500      0.0000 
     24 H          51.4099   30.1968   39.6561 H         1 DIH500      0.0000 
     25 H          49.6457   32.7389   42.2034 H         1 DIH500      0.0000 
     26 H          49.4929   30.3214   43.1331 H         1 DIH500      0.0000 
     27 H          51.0260   31.1956   43.2927 H         1 DIH500      0.0000 
     28 H          50.0901   29.2752   41.2000 H         1 DIH500      0.0000 
     29 H          51.8677   27.9152   41.7172 H         1 DIH500      0.0000 
     30 H          51.3009   28.4862   43.2960 H         1 DIH500      0.0000 
     31 H          54.3695   28.3594   41.2172 H         1 DIH500      0.0000 
     32 H          56.3762   29.3294   42.2940 H         1 DIH500      0.0000 
     33 H          55.1426   28.9098   44.5319 H         1 DIH500      0.0000 
     34 H          55.5977   32.0201   46.5199 H         1 DIH500      0.0000 
     35 H          53.1986   31.8177   46.6309 H         1 DIH500      0.0000 
     36 H          53.6271   31.2402   43.0137 H         1 DIH500      0.0000 
     37 H          52.9961   33.8030   39.7447 H         1 DIH500      0.0000 
     38 H          47.8533   31.7344   41.5079 H         1 DIH500      0.0000 
@<TRIPOS>BOND
     1    2    1 1    
     2   37    1 1    
     3    3    2 1    
     4   20    2 1    
     5   21    2 1    
     6    4    3 1    
     7    5    3 1    
     8   22    3 1    
     9    8    4 1    
    10   23    4 1    
    11   24    4 1    
    12    6    5 1    
    13    7    5 1    
    14   25    5 1    
    15   38    6 1    
    16    8    7 1    
    17   26    7 1    
    18   27    7 1    
    19    9    8 1    
    20   28    8 1    
    21   10    9 1    
    22   29    9 1    
    23   30    9 1    
    24   11   10 2    
    25   19   10 1    
    26   12   11 1    
    27   31   11 1    
    28   13   12 1    
    29   32   12 1    
    30   14   13 1    
    31   19   13 1    
    32   33   13 1    
    33   15   14 2    
    34   16   14 am   
    35   17   16 1    
    36   34   16 1    
    37   18   17 2    
    38   35   17 1    
    39   19   18 1    
    40   36   19 1    
@<TRIPOS>SUBSTRUCTURE
     1 DIH500      1 GROUP   
@<TRIPOS>SET

