#    Name: 4b7p_9UN_1_INTS_M
#    Modification time : Tue Mar 25 06:55:54 2014

@<TRIPOS>MOLECULE
4b7p_9UN_1_INTS_M
   76     0    12     0     0
SMALL
NO_CHARGES


@<TRIPOS>ATOM
      1 CA          7.8635    3.5090   13.0420 C.3       4 GLC5        0.0000 
      2 CA          8.0570    3.8370   11.0510 C.3      12 GLL5        0.0000 
      3 CA          7.6700    3.1810   15.0330 C.3       8 GLP5        0.0000 
      4 CA          7.0290    4.4930   13.2995 C.3       4 GLC5        0.0000 
      5 CA          6.8140    4.3370   11.4230 C.3      12 GLL5        0.0000 
      6 CA          7.2440    4.6490   15.1760 C.3       8 GLP5        0.0000 
      7 CA          6.6815    3.3755   13.1370 C.3       4 GLC5        0.0000 
      8 CA          5.6930    3.5700   11.2410 C.3      12 GLL5        0.0000 
      9 O          10.3310    2.8075   10.4185 O.2       1 ALC1        0.0000 
     10 O           9.3400    2.0010   10.2550 O.2       9 ALL1        0.0000 
     11 O          11.3220    3.6140   10.5820 O.2       5 ALP1        0.0000 
     12 O           7.8360    6.2240   12.0945 O.2       1 ALC1        0.0000 
     13 O           6.7200    5.6280   11.8660 O.2       9 ALL1        0.0000 
     14 O           8.9520    6.8200   12.3230 O.2       5 ALP1        0.0000 
     15 CA          4.2765    0.9990   11.8415 C.3       4 GLC5        0.0000 
     16 CA          4.4160    0.7230    9.6720 C.3      12 GLL5        0.0000 
     17 CA          4.1370    1.2750   14.0110 C.3       8 GLP5        0.0000 
     18 CA          3.1970    0.1420   11.8375 C.3       4 GLC5        0.0000 
     19 CA          3.9370   -0.5330   10.0520 C.3      12 GLL5        0.0000 
     20 CA          2.4570    0.8170   13.6230 C.3       8 GLP5        0.0000 
     21 CA          1.6815   -1.8015    9.9445 C.3       4 GLC5        0.0000 
     22 CA          3.6350   -1.4330    9.0450 C.3      12 GLL5        0.0000 
     23 CA         -0.2720   -2.1700   10.8440 C.3       8 GLP5        0.0000 
     24 CA          5.7165   -2.1725    7.7065 C.3       4 GLC5        0.0000 
     25 CA          3.8850   -1.0890    7.7390 C.3      12 GLL5        0.0000 
     26 CA          7.5480   -3.2560    7.6740 C.3       8 GLP5        0.0000 
     27 CA          6.2790    2.1045    7.7415 C.3       4 GLC5        0.0000 
     28 CA          4.6480    1.1090    8.3460 C.3      12 GLL5        0.0000 
     29 CA          7.9100    3.1000    7.1370 C.3       8 GLP5        0.0000 
     30 N           2.0305   -2.7000    5.2440 N.am      2 SEC2        0.0000 
     31 N           3.0180   -1.6620    5.7770 N.am     10 SEL2        0.0000 
     32 N           1.0430   -3.7380    4.7110 N.am      6 SEP2        0.0000 
     33 CA          2.3820    3.1535   12.5640 C.3       4 GLC5        0.0000 
     34 CA          3.1910    4.0400   10.8930 C.3      12 GLL5        0.0000 
     35 CA          1.5730    2.2670   14.2350 C.3       8 GLP5        0.0000 
     36 N          -0.4330    5.2440    8.9955 N.am      2 SEC2        0.0000 
     37 N           0.4900    4.7250   10.0210 N.am     10 SEL2        0.0000 
     38 N          -1.3560    5.7630    7.9700 N.am      6 SEP2        0.0000 
     39 O           0.2650    5.4630   13.5680 O.2       1 ALC1        0.0000 
     40 O          -0.0900    5.0500   12.2090 O.2       9 ALL1        0.0000 
     41 O           0.6200    5.8760   14.9270 O.2       5 ALP1        0.0000 
     42 CA         -1.0545    6.5510   10.3205 C.3       4 GLC5        0.0000 
     43 CA         -1.5290    5.1510   11.9850 C.3      12 GLL5        0.0000 
     44 CA         -0.5800    7.9510    8.6560 C.3       8 GLP5        0.0000 
     45 OD1        -4.0415    2.7055   13.5170 O.co2     3 ASC3        0.0000 
     46 OD1        -4.0490    4.1420   13.0090 O.co2    11 ASL3        0.0000 
     47 OD1        -4.0340    1.2690   14.0250 O.co2     7 ASP3        0.0000 
     48 OD1        -3.3760    3.4775   13.9645 O.co2     3 ASC3        0.0000 
     49 OD1        -2.7030    2.8130   14.9200 O.co2     7 ASP3        0.0000 
     50 O          -4.0415    2.7055   13.5170 O.2       1 ALC1        0.0000 
     51 O          -4.0490    4.1420   13.0090 O.2       9 ALL1        0.0000 
     52 O          -4.0340    1.2690   14.0250 O.2       5 ALP1        0.0000 
     53 O          -3.3760    3.4775   13.9645 O.2       1 ALC1        0.0000 
     54 O          -2.7030    2.8130   14.9200 O.2       5 ALP1        0.0000 
     55 CA         -1.9205    2.1585   13.2705 C.3       4 GLC5        0.0000 
     56 CA         -1.9970    3.7100   11.7650 C.3      12 GLL5        0.0000 
     57 CA         -1.8440    0.6070   14.7760 C.3       8 GLP5        0.0000 
     58 CA          8.0058    3.1415    8.9808 C.3       4 GLC5        0.0000 
     59 CA          8.1702    5.6340   10.0845 C.3       4 GLC5        0.0000 
     60 CA          8.9050    7.1810    8.9320 C.3       8 GLP5        0.0000 
     61 CA          9.4617    2.1820   12.0913 C.3       4 GLC5        0.0000 
     62 CA         10.8220    1.1810   13.3580 C.3       8 GLP5        0.0000 
     63 CA          5.4543    5.8548   10.9635 C.3       4 GLC5        0.0000 
     64 CA          4.6550    7.7560   10.5950 C.3       8 GLP5        0.0000 
     65 CA          7.1532    2.5492    8.8780 C.3       4 GLC5        0.0000 
     66 CA          5.7740    2.2760   10.7820 C.3      12 GLL5        0.0000 
     67 CA          4.4173   -2.4270    9.8894 C.3       4 GLC5        0.0000 
     68 CA          4.9990   -3.8180   11.1350 C.3       8 GLP5        0.0000 
     69 CA          4.2230    5.9232   10.9192 C.3       4 GLC5        0.0000 
     70 CA          4.5996    2.4035   12.6569 C.3       4 GLC5        0.0000 
     71 CA          4.3910    4.1410   11.5940 C.3      12 GLL5        0.0000 
     72 CA         -0.5275    6.9195   12.5352 C.3       4 GLC5        0.0000 
     73 CA          0.7870    8.4020   12.4330 C.3       8 GLP5        0.0000 
     74 CA         -2.3958    6.4893   14.8680 C.3       4 GLC5        0.0000 
     75 CA         -2.1550    5.7230   13.2900 C.3      12 GLL5        0.0000 
     76 CA         -1.8680    7.3310   16.5080 C.3       8 GLP5        0.0000 
@<TRIPOS>BOND
@<TRIPOS>SUBSTRUCTURE
     1 ALC1        9 GROUP        1 X    ALC  0     ROOT ALC X 1
     2 SEC2       30 GROUP        1 X    SEC  0     **** SEC X 2
     3 ASC3       45 GROUP        1 X    ASC  0     **** ASC X 3
     4 GLC5        1 GROUP        1 X    GLC  0     **** GLC X 6
     5 ALP1       11 GROUP        1 Y    ALP  0     ROOT ALP Y 8
     6 SEP2       32 GROUP        1 Y    SEP  0     **** SEP Y 9
     7 ASP3       47 GROUP        1 Y    ASP  0     **** ASP Y 10
     8 GLP5        3 GROUP        1 Y    GLP  0     **** GLP Y 13
     9 ALL1       10 GROUP        1 Z    ALL  0     ROOT ALL Z 15
    10 SEL2       31 GROUP        1 Z    SEL  0     **** SEL Z 16
    11 ASL3       46 GROUP        1 Z    ASL  0     **** ASL Z 17
    12 GLL5        2 GROUP        1 Z    GLL  0     **** GLL Z 20
@<TRIPOS>SET

