#    Name: 4b7p_9UN_1_ligand
#    Modification time : Tue Mar 25 06:55:54 2014

@<TRIPOS>MOLECULE
4b7p_9UN_1_ligand
   56    59     1     0     0
SMALL
NO_CHARGES


@<TRIPOS>ATOM
      1 C1          8.0570    3.8370   11.0510 C.ar      1 9UN1226     0.0000 
      2 C2          6.8140    4.3370   11.4230 C.ar      1 9UN1226     0.0000 
      3 C3          5.6930    3.5700   11.2410 C.ar      1 9UN1226     0.0000 
      4 C4          5.7740    2.2760   10.7820 C.ar      1 9UN1226     0.0000 
      5 C5          7.0190    1.7210   10.4560 C.ar      1 9UN1226     0.0000 
      6 C6          8.1460    2.5290   10.5980 C.ar      1 9UN1226     0.0000 
      7 O7          9.3400    2.0010   10.2550 O.3       1 9UN1226     0.0000 
      8 O8          6.7200    5.6280   11.8660 O.3       1 9UN1226     0.0000 
      9 O9          4.6440    1.5500   10.7180 O.3       1 9UN1226     0.0000 
     10 C10         4.4160    0.7230    9.6720 C.ar      1 9UN1226     0.0000 
     11 C11         3.9370   -0.5330   10.0520 C.ar      1 9UN1226     0.0000 
     12 C12         3.6350   -1.4330    9.0450 C.ar      1 9UN1226     0.0000 
     13 C13         3.8850   -1.0890    7.7390 C.ar      1 9UN1226     0.0000 
     14 C14         4.3590    0.1720    7.3520 C.ar      1 9UN1226     0.0000 
     15 C15         4.6480    1.1090    8.3460 C.ar      1 9UN1226     0.0000 
     16 N16         3.5420   -2.0660    6.8050 N.pl3     1 9UN1226     0.0000 
     17 O17         3.0180   -1.6620    5.7770 O.2       1 9UN1226     0.0000 
     18 O18         3.7250   -3.2570    7.0450 O.2       1 9UN1226     0.0000 
     19 C19         4.3910    4.1410   11.5940 C.2       1 9UN1226     0.0000 
     20 O20         4.1630    4.8950   12.6700 O.3       1 9UN1226     0.0000 
     21 N21         2.7360    5.3060   12.6810 N.2       1 9UN1226     0.0000 
     22 C22         2.2120    4.7350   11.6030 C.2       1 9UN1226     0.0000 
     23 C23         3.1910    4.0400   10.8930 C.2       1 9UN1226     0.0000 
     24 C24         0.7810    4.8470   11.2110 C.2       1 9UN1226     0.0000 
     25 O25         0.4900    4.7250   10.0210 O.2       1 9UN1226     0.0000 
     26 N26        -0.0900    5.0500   12.2090 N.am      1 9UN1226     0.0000 
     27 C27        -1.5290    5.1510   11.9850 C.3       1 9UN1226     0.0000 
     28 C28        -2.1550    5.7230   13.2900 C.3       1 9UN1226     0.0000 
     29 C29        -3.6920    5.5720   13.1660 C.3       1 9UN1226     0.0000 
     30 N30        -4.0490    4.1420   13.0090 N.4       1 9UN1226     0.0000 
     31 C31        -3.5290    3.6440   11.7360 C.3       1 9UN1226     0.0000 
     32 C32        -1.9970    3.7100   11.7650 C.3       1 9UN1226     0.0000 
     33 C33        -5.5420    3.9600   13.0010 C.3       1 9UN1226     0.0000 
     34 H           8.8903    4.4247   11.1109 H         1 9UN1226     0.0000 
     35 H           7.0933    0.7682   10.1298 H         1 9UN1226     0.0000 
     36 H           3.8176   -0.7697   11.0275 H         1 9UN1226     0.0000 
     37 H           3.2283   -2.3475    9.2767 H         1 9UN1226     0.0000 
     38 H           4.4884    0.3966    6.3707 H         1 9UN1226     0.0000 
     39 H           5.0067    2.0207    8.1218 H         1 9UN1226     0.0000 
     40 H           3.0617    3.5794   10.0760 H         1 9UN1226     0.0000 
     41 H           0.2219    5.1461   13.2007 H         1 9UN1226     0.0000 
     42 H          -1.7638    5.7442   11.1762 H         1 9UN1226     0.0000 
     43 H          -1.9043    6.7578   13.3760 H         1 9UN1226     0.0000 
     44 H          -1.8072    5.1549   14.1251 H         1 9UN1226     0.0000 
     45 H          -4.0198    6.1488   12.3035 H         1 9UN1226     0.0000 
     46 H          -4.1459    5.9871   14.0636 H         1 9UN1226     0.0000 
     47 H          -3.6349    3.5695   13.8196 H         1 9UN1226     0.0000 
     48 H          -3.8805    4.2509   10.9045 H         1 9UN1226     0.0000 
     49 H          -3.8224    2.6098   11.5703 H         1 9UN1226     0.0000 
     50 H          -1.6276    3.0850   12.5725 H         1 9UN1226     0.0000 
     51 H          -1.6056    3.3454   10.8199 H         1 9UN1226     0.0000 
     52 H          -5.7985    2.9995   12.8930 H         1 9UN1226     0.0000 
     53 H          -5.9599    4.2812   13.8508 H         1 9UN1226     0.0000 
     54 H          -5.9736    4.4645   12.2532 H         1 9UN1226     0.0000 
     55 H          10.0030    2.7310   10.4211 H         1 9UN1226     0.0000 
     56 H           7.5505    5.7786   12.4022 H         1 9UN1226     0.0000 
@<TRIPOS>BOND
     1    2    1 ar   
     2    6    1 ar   
     3   34    1 1    
     4    3    2 ar   
     5    8    2 1    
     6    4    3 ar   
     7   19    3 1    
     8    5    4 ar   
     9    9    4 1    
    10    6    5 ar   
    11   35    5 1    
    12    7    6 1    
    13   55    7 1    
    14   56    8 1    
    15   10    9 1    
    16   11   10 ar   
    17   15   10 ar   
    18   12   11 ar   
    19   36   11 1    
    20   13   12 ar   
    21   37   12 1    
    22   14   13 ar   
    23   16   13 1    
    24   15   14 ar   
    25   38   14 1    
    26   39   15 1    
    27   17   16 2    
    28   18   16 2    
    29   20   19 1    
    30   23   19 2    
    31   21   20 1    
    32   22   21 2    
    33   23   22 1    
    34   24   22 1    
    35   40   23 1    
    36   25   24 2    
    37   26   24 am   
    38   27   26 1    
    39   41   26 1    
    40   28   27 1    
    41   32   27 1    
    42   42   27 1    
    43   29   28 1    
    44   43   28 1    
    45   44   28 1    
    46   30   29 1    
    47   45   29 1    
    48   46   29 1    
    49   31   30 1    
    50   33   30 1    
    51   47   30 1    
    52   32   31 1    
    53   48   31 1    
    54   49   31 1    
    55   50   32 1    
    56   51   32 1    
    57   52   33 1    
    58   53   33 1    
    59   54   33 1    
@<TRIPOS>SUBSTRUCTURE
     1 9UN1226     1 GROUP   
@<TRIPOS>SET

