#    Name: 2vqq_TFG_2_INTS_M
#    Modification time : Tue Mar 25 02:47:30 2014

@<TRIPOS>MOLECULE
2vqq_TFG_2_INTS_M
   84     0     9     0     0
SMALL
NO_CHARGES


@<TRIPOS>ATOM
      1 CA         -5.1335   -6.6865  -16.6275 C.3       3 GLC5        0.0000 
      2 CA         -6.0320   -7.0160  -18.2690 C.3       9 GLL5        0.0000 
      3 CA         -4.2350   -6.3570  -14.9860 C.3       6 GLP5        0.0000 
      4 CA         -2.7230   -8.1325  -21.7065 C.3       3 GLC5        0.0000 
      5 CA         -4.0620   -8.0770  -19.9300 C.3       9 GLL5        0.0000 
      6 CA         -1.3840   -8.1880  -23.4830 C.3       6 GLP5        0.0000 
      7 CA         -3.0575   -5.1355  -20.6805 C.3       3 GLC5        0.0000 
      8 CA         -4.3490   -6.7110  -19.9560 C.3       9 GLL5        0.0000 
      9 CA         -1.7660   -3.5600  -21.4050 C.3       6 GLP5        0.0000 
     10 CA         -5.8125   -2.9795  -16.5300 C.3       3 GLC5        0.0000 
     11 CA         -6.0600   -3.9610  -18.1640 C.3       9 GLL5        0.0000 
     12 CA         -5.5650   -1.9980  -14.8960 C.3       6 GLP5        0.0000 
     13 CA         -5.1475   -5.1590  -16.5750 C.3       3 GLC5        0.0000 
     14 CA         -7.6990   -3.2425  -20.8720 C.3       3 GLC5        0.0000 
     15 CA         -6.2480   -1.6140  -21.0530 C.3       9 GLL5        0.0000 
     16 CA         -9.1500   -4.8710  -20.6910 C.3       6 GLP5        0.0000 
     17 CA         -5.2820   -0.0805  -20.1450 C.3       3 GLC5        0.0000 
     18 CA         -4.3160    1.4530  -19.2370 C.3       6 GLP5        0.0000 
     19 CA         -5.7425   -5.9240  -22.7545 C.3       3 GLC5        0.0000 
     20 CA         -5.3600   -4.5200  -21.6660 C.3       9 GLL5        0.0000 
     21 CA         -6.1250   -7.3280  -23.8430 C.3       6 GLP5        0.0000 
     22 CA         -6.9835   -4.7855  -23.6860 C.3       3 GLC5        0.0000 
     23 CA         -5.8570   -3.5300  -22.6610 C.3       9 GLL5        0.0000 
     24 CA         -8.1100   -6.0410  -24.7110 C.3       6 GLP5        0.0000 
     25 CA         -7.0235   -2.5775  -23.9900 C.3       3 GLC5        0.0000 
     26 CA         -8.1900   -1.6250  -25.3190 C.3       6 GLP5        0.0000 
     27 N          -3.6290   -3.0770  -24.8310 N.am      1 SEC2        0.0000 
     28 N          -4.1800   -2.1540  -23.9260 N.am      7 SEL2        0.0000 
     29 N          -3.0780   -4.0000  -25.7360 N.am      4 SEP2        0.0000 
     30 CA         -1.9060    6.9340  -22.7635 C.3       3 GLC5        0.0000 
     31 CA         -1.5360    5.3530  -23.5430 C.3       9 GLL5        0.0000 
     32 CA         -2.2760    8.5150  -21.9840 C.3       6 GLP5        0.0000 
     33 CA         -2.5100    6.3530  -25.0740 C.3       3 GLC5        0.0000 
     34 CA         -3.4840    7.3530  -26.6050 C.3       6 GLP5        0.0000 
     35 CA         -0.5490    7.0875  -24.4405 C.3       3 GLC5        0.0000 
     36 CA          0.4380    8.8220  -25.3380 C.3       6 GLP5        0.0000 
     37 CA         -3.5400    6.1625  -24.8070 C.3       3 GLC5        0.0000 
     38 CA         -3.5960    4.9720  -23.0090 C.3       9 GLL5        0.0000 
     39 CA         -4.8445    6.4195  -22.9755 C.3       3 GLC5        0.0000 
     40 CA         -6.0930    7.8670  -22.9420 C.3       6 GLP5        0.0000 
     41 Zn         -1.4065    3.0690  -25.4280 Zn        2 ZIC7        0.0000 
     42 Zn         -2.4100    3.5460  -25.1050 Zn        8 ZIL7        0.0000 
     43 Zn         -0.4030    2.5920  -25.7510 Zn        5 ZIP7        0.0000 
     44 N          -2.6120    4.8700  -26.0150 N.am      1 SEC2        0.0000 
     45 N          -2.4100    3.5460  -25.1050 N.am      7 SEL2        0.0000 
     46 N          -2.8140    6.1940  -26.9250 N.am      4 SEP2        0.0000 
     47 N          -3.7600    3.6570  -25.5980 N.am      1 SEC2        0.0000 
     48 N          -5.1100    3.7680  -26.0910 N.am      4 SEP2        0.0000 
     49 Zn         -0.6035    2.6705  -24.6970 Zn        2 ZIC7        0.0000 
     50 Zn         -0.8040    2.7490  -23.6430 Zn        8 ZIL7        0.0000 
     51 CA         -7.2492   -7.6600  -17.1097 C.3       3 GLC5        0.0000 
     52 CA         -5.7510   -8.3820  -18.2360 C.3       9 GLL5        0.0000 
     53 CA         -8.6070   -7.6210  -15.9670 C.3       6 GLP5        0.0000 
     54 CA         -3.9800   -8.4445  -17.1788 C.3       3 GLC5        0.0000 
     55 CA         -2.7040   -8.2400  -15.7090 C.3       6 GLP5        0.0000 
     56 CA         -7.1406   -8.8117  -19.4159 C.3       3 GLC5        0.0000 
     57 CA         -4.7610   -8.9160  -19.0610 C.3       9 GLL5        0.0000 
     58 CA         -8.9550   -9.3160  -20.1750 C.3       6 GLP5        0.0000 
     59 CA         -2.6873   -9.1558  -19.0467 C.3       3 GLC5        0.0000 
     60 CA         -0.9630   -9.8150  -18.5980 C.3       6 GLP5        0.0000 
     61 CA         -5.1653   -7.3610  -21.8930 C.3       3 GLC5        0.0000 
     62 CA         -3.2358   -6.6490  -18.2335 C.3       3 GLC5        0.0000 
     63 CA         -2.2660   -5.9040  -16.5240 C.3       6 GLP5        0.0000 
     64 CA         -3.8815   -5.6907  -17.8253 C.3       3 GLC5        0.0000 
     65 CA         -5.3310   -6.1620  -19.1180 C.3       9 GLL5        0.0000 
     66 CA         -7.3793   -4.4480  -21.4273 C.3       3 GLC5        0.0000 
     67 CA         -3.6873   -3.7925  -21.7843 C.3       3 GLC5        0.0000 
     68 CA         -2.5747    0.8655  -25.3987 C.3       3 GLC5        0.0000 
     69 CA         -2.7540    0.4300  -23.5030 C.3       9 GLL5        0.0000 
     70 CA         -2.2110    0.4790  -27.3900 C.3       6 GLP5        0.0000 
     71 CA         -6.3347    2.4405  -22.3095 C.3       3 GLC5        0.0000 
     72 CA         -4.3820    2.1670  -22.8240 C.3       9 GLL5        0.0000 
     73 CA         -7.9860    3.3120  -21.8890 C.3       6 GLP5        0.0000 
     74 CA         -4.8138    3.3262  -24.1570 C.3       3 GLC5        0.0000 
     75 CA         -5.8750    4.5320  -25.2460 C.3       6 GLP5        0.0000 
     76 CA         -2.5663    6.0704  -21.6011 C.3       3 GLC5        0.0000 
     77 CA         -1.9830    4.3600  -21.6480 C.3       9 GLL5        0.0000 
     78 CA         -2.6580    7.5920  -20.8940 C.3       6 GLP5        0.0000 
     79 CA         -3.5057    3.6814  -20.8776 C.3       3 GLC5        0.0000 
     80 CA         -4.5370    2.8140  -19.4470 C.3       6 GLP5        0.0000 
     81 CA         -4.2205    4.2499  -24.2881 C.3       3 GLC5        0.0000 
     82 CA         -2.1660    3.1980  -23.6920 C.3       9 GLL5        0.0000 
     83 CA         -0.2739    4.6670  -23.0289 C.3       3 GLC5        0.0000 
     84 CA          1.5150    5.4130  -22.9910 C.3       6 GLP5        0.0000 
@<TRIPOS>BOND
@<TRIPOS>SUBSTRUCTURE
     1 SEC2       27 GROUP        1 X    SEC  0     ROOT SEC X 2
     2 ZIC7       41 GROUP        1 X    ZIC  0     **** ZIC X 5
     3 GLC5        1 GROUP        1 X    GLC  0     **** GLC X 6
     4 SEP2       29 GROUP        1 Y    SEP  0     ROOT SEP Y 9
     5 ZIP7       43 GROUP        1 Y    ZIP  0     **** ZIP Y 12
     6 GLP5        3 GROUP        1 Y    GLP  0     **** GLP Y 13
     7 SEL2       28 GROUP        1 Z    SEL  0     ROOT SEL Z 16
     8 ZIL7       42 GROUP        1 Z    ZIL  0     **** ZIL Z 19
     9 GLL5        2 GROUP        1 Z    GLL  0     **** GLL Z 20
@<TRIPOS>SET

