#    Name: 2vqq_TFG_2_ligand
#    Modification time : Tue Mar 25 02:47:30 2014

@<TRIPOS>MOLECULE
2vqq_TFG_2_ligand
   45    48     1     0     0
SMALL
NO_CHARGES


@<TRIPOS>ATOM
      1 C14        -6.0320   -7.0160  -18.2690 C.ar      1 TFG1409     0.0000 
      2 C15        -5.7510   -8.3820  -18.2360 C.ar      1 TFG1409     0.0000 
      3 C16        -4.7610   -8.9160  -19.0610 C.ar      1 TFG1409     0.0000 
      4 C17        -4.0620   -8.0770  -19.9300 C.ar      1 TFG1409     0.0000 
      5 C18        -4.3490   -6.7110  -19.9560 C.ar      1 TFG1409     0.0000 
      6 C13        -5.3310   -6.1620  -19.1180 C.ar      1 TFG1409     0.0000 
      7 C19        -5.6630   -4.7930  -19.1350 C.2       1 TFG1409     0.0000 
      8 C12        -6.0600   -3.9610  -18.1640 C.2       1 TFG1409     0.0000 
      9 N3         -6.3130   -2.7360  -18.6770 N.pl3     1 TFG1409     0.0000 
     10 C11        -6.0890   -2.7520  -19.9880 C.2       1 TFG1409     0.0000 
     11 C10        -6.2480   -1.6140  -21.0530 C.3       1 TFG1409     0.0000 
     12 N2         -5.6860   -4.0730  -20.3110 N.pl3     1 TFG1409     0.0000 
     13 C9         -5.3600   -4.5200  -21.6660 C.3       1 TFG1409     0.0000 
     14 C8         -5.8570   -3.5300  -22.6610 C.3       1 TFG1409     0.0000 
     15 N1         -5.5770   -2.1410  -22.2570 N.am      1 TFG1409     0.0000 
     16 C7         -4.6350   -1.5240  -22.9670 C.2       1 TFG1409     0.0000 
     17 O1         -4.1800   -2.1540  -23.9260 O.2       1 TFG1409     0.0000 
     18 C4         -4.2090   -0.0860  -22.9150 C.2       1 TFG1409     0.0000 
     19 S1         -2.7540    0.4300  -23.5030 S.3       1 TFG1409     0.0000 
     20 C3         -4.9850    0.9710  -22.6360 C.2       1 TFG1409     0.0000 
     21 C2         -4.3820    2.1670  -22.8240 C.2       1 TFG1409     0.0000 
     22 C1         -3.1230    2.0740  -23.3120 C.2       1 TFG1409     0.0000 
     23 C6         -2.3360    4.5030  -22.9280 C.3       1 TFG1409     0.0000 
     24 F1         -1.5360    5.3530  -23.5430 F         1 TFG1409     0.0000 
     25 F2         -3.5960    4.9720  -23.0090 F         1 TFG1409     0.0000 
     26 F3         -1.9830    4.3600  -21.6480 F         1 TFG1409     0.0000 
     27 O3         -2.4100    3.5460  -25.1050 O.3       1 TFG1409     0.0000 
     28 O2         -0.8040    2.7490  -23.6430 O.3       1 TFG1409     0.0000 
     29 C5         -2.1660    3.1980  -23.6920 C.3       1 TFG1409     0.0000 
     30 H          -6.7699   -6.6331  -17.6554 H         1 TFG1409     0.0000 
     31 H          -6.2758   -8.9978  -17.6009 H         1 TFG1409     0.0000 
     32 H          -4.5483   -9.9169  -19.0294 H         1 TFG1409     0.0000 
     33 H          -3.3401   -8.4623  -20.5473 H         1 TFG1409     0.0000 
     34 H          -3.8319   -6.0924  -20.6013 H         1 TFG1409     0.0000 
     35 H          -6.1553   -4.1976  -17.2200 H         1 TFG1409     0.0000 
     36 H          -6.6127   -1.9681  -18.1563 H         1 TFG1409     0.0000 
     37 H          -5.7604   -0.7440  -20.6796 H         1 TFG1409     0.0000 
     38 H          -7.2889   -1.4610  -21.2176 H         1 TFG1409     0.0000 
     39 H          -5.8201   -5.4952  -21.8655 H         1 TFG1409     0.0000 
     40 H          -4.2750   -4.6321  -21.7785 H         1 TFG1409     0.0000 
     41 H          -6.9455   -3.6676  -22.7966 H         1 TFG1409     0.0000 
     42 H          -5.3894   -3.7355  -23.6415 H         1 TFG1409     0.0000 
     43 H          -5.9330    0.8884  -22.3148 H         1 TFG1409     0.0000 
     44 H          -4.8250    3.0396  -22.6213 H         1 TFG1409     0.0000 
     45 H          -0.7256    2.2546  -22.7773 H         1 TFG1409     0.0000 
@<TRIPOS>BOND
     1    2    1 ar   
     2    6    1 ar   
     3   30    1 1    
     4    3    2 ar   
     5   31    2 1    
     6    4    3 ar   
     7   32    3 1    
     8    5    4 ar   
     9   33    4 1    
    10    6    5 ar   
    11   34    5 1    
    12    7    6 1    
    13    8    7 2    
    14   12    7 1    
    15    9    8 1    
    16   35    8 1    
    17   10    9 1    
    18   36    9 1    
    19   11   10 1    
    20   12   10 2    
    21   15   11 1    
    22   37   11 1    
    23   38   11 1    
    24   13   12 1    
    25   14   13 1    
    26   39   13 1    
    27   40   13 1    
    28   15   14 1    
    29   41   14 1    
    30   42   14 1    
    31   16   15 am   
    32   17   16 2    
    33   18   16 1    
    34   19   18 1    
    35   20   18 2    
    36   22   19 1    
    37   21   20 1    
    38   43   20 1    
    39   22   21 2    
    40   44   21 1    
    41   29   22 1    
    42   24   23 1    
    43   25   23 1    
    44   26   23 1    
    45   29   23 1    
    46   29   27 1    
    47   29   28 1    
    48   45   28 1    
@<TRIPOS>SUBSTRUCTURE
     1 TFG1409     1 GROUP   
@<TRIPOS>SET

