#    Name: 3eek_53S_2_INTS_M
#    Modification time : Tue Mar 25 01:37:34 2014

@<TRIPOS>MOLECULE
3eek_53S_2_INTS_M
   96     0     9     0     0
SMALL
NO_CHARGES


@<TRIPOS>ATOM
      1 CA         21.4135    5.6405   37.6775 C.3       3 GLC5        0.0000 
      2 CA         22.5460    6.6350   36.2220 C.3       9 GLL5        0.0000 
      3 CA         20.2810    4.6460   39.1330 C.3       6 GLP5        0.0000 
      4 CA         23.9630    5.6385   36.7765 C.3       3 GLC5        0.0000 
      5 CA         25.3800    4.6420   37.3310 C.3       6 GLP5        0.0000 
      6 CA         20.9635    7.7065   36.0970 C.3       3 GLC5        0.0000 
      7 CA         19.3810    8.7780   35.9720 C.3       6 GLP5        0.0000 
      8 CA         22.0720    5.1540   35.5200 C.3       3 GLC5        0.0000 
      9 CA         21.5980    3.6730   34.8180 C.3       6 GLP5        0.0000 
     10 CA         26.4130   15.2115   38.5505 C.3       3 GLC5        0.0000 
     11 CA         27.0030   13.3080   39.0050 C.3       9 GLL5        0.0000 
     12 CA         25.8230   17.1150   38.0960 C.3       6 GLP5        0.0000 
     13 CA         26.2465   15.7560   41.0460 C.3       3 GLC5        0.0000 
     14 CA         27.0450   14.0900   41.4810 C.3       9 GLL5        0.0000 
     15 CA         25.4480   17.4220   40.6110 C.3       6 GLP5        0.0000 
     16 CA         23.1135   11.1460   36.8770 C.3       3 GLC5        0.0000 
     17 CA         24.2360    9.6390   37.6160 C.3       9 GLL5        0.0000 
     18 CA         21.9910   12.6530   36.1380 C.3       6 GLP5        0.0000 
     19 CA         24.5255    7.0315   37.6875 C.3       3 GLC5        0.0000 
     20 CA         23.7930    8.6290   36.7380 C.3       9 GLL5        0.0000 
     21 CA         25.2580    5.4340   38.6370 C.3       6 GLP5        0.0000 
     22 CA         21.5870    8.7035   36.3550 C.3       3 GLC5        0.0000 
     23 CA         24.9900    6.4920   36.4825 C.3       3 GLC5        0.0000 
     24 CA         24.6000    8.3420   35.6340 C.3       9 GLL5        0.0000 
     25 CA         23.8905    8.1510   33.5485 C.3       3 GLC5        0.0000 
     26 CA         23.1810    7.9600   31.4630 C.3       6 GLP5        0.0000 
     27 CA         26.1615    7.6660   37.1055 C.3       3 GLC5        0.0000 
     28 CA         25.7930    9.0200   35.3910 C.3       9 GLL5        0.0000 
     29 CA         26.5300    6.3120   38.8200 C.3       6 GLP5        0.0000 
     30 CA         25.7990    6.7375   33.3765 C.3       3 GLC5        0.0000 
     31 CA         26.4240    8.5170   34.1220 C.3       9 GLL5        0.0000 
     32 CA         25.1740    4.9580   32.6310 C.3       6 GLP5        0.0000 
     33 CA         28.5330    9.6970   32.7220 C.3       3 GLC5        0.0000 
     34 CA         26.3860    9.4690   32.9400 C.3       9 GLL5        0.0000 
     35 CA         30.6800    9.9250   32.5040 C.3       6 GLP5        0.0000 
     36 CA         25.3505   11.0275   32.9130 C.3       3 GLC5        0.0000 
     37 CA         24.3150   12.5860   32.8860 C.3       6 GLP5        0.0000 
     38 CA         27.0525    9.9345   31.4290 C.3       3 GLC5        0.0000 
     39 CA         27.7190   10.4000   29.9180 C.3       6 GLP5        0.0000 
     40 CA         28.2975    6.6115   37.9745 C.3       3 GLC5        0.0000 
     41 CA         30.0650    6.9110   37.1290 C.3       9 GLL5        0.0000 
     42 CA         29.6325    8.3670   38.1155 C.3       3 GLC5        0.0000 
     43 CA         29.2000    9.8230   39.1020 C.3       6 GLP5        0.0000 
     44 CA         31.8480    7.6960   36.2165 C.3       3 GLC5        0.0000 
     45 CA         33.6310    8.4810   35.3040 C.3       6 GLP5        0.0000 
     46 N          32.1740    5.2055   36.9210 N.am      2 SEC2        0.0000 
     47 N          31.6400    5.5180   35.7540 N.am      8 SEL2        0.0000 
     48 N          32.7080    4.8930   38.0880 N.am      5 SEP2        0.0000 
     49 CA         33.2520    5.0010   32.8880 C.3       3 GLC5        0.0000 
     50 CA         32.1380    4.9130   34.6620 C.3       9 GLL5        0.0000 
     51 CA         34.3660    5.0890   31.1140 C.3       6 GLP5        0.0000 
     52 CA         31.6885    3.3940   33.4175 C.3       3 GLC5        0.0000 
     53 CA         31.2390    1.8750   32.1730 C.3       6 GLP5        0.0000 
     54 CA         31.6685    3.3485   35.7965 C.3       3 GLC5        0.0000 
     55 CA         31.1990    1.7840   36.9310 C.3       6 GLP5        0.0000 
     56 CA         32.8845    6.6970   34.9830 C.3       3 GLC5        0.0000 
     57 O          32.9965    4.5575   36.4455 O.2       1 ALC1        0.0000 
     58 O          33.2850    4.2220   34.8030 O.2       7 ALL1        0.0000 
     59 O          32.7080    4.8930   38.0880 O.2       4 ALP1        0.0000 
     60 O          33.9055    4.1205   36.0300 O.2       1 ALC1        0.0000 
     61 O          34.5260    4.0190   37.2570 O.2       4 ALP1        0.0000 
     62 CA         30.8070    3.8085   32.7610 C.3       3 GLC5        0.0000 
     63 CA         30.3750    5.7420   33.3490 C.3       9 GLL5        0.0000 
     64 O          30.3205    4.8625   31.1885 O.2       1 ALC1        0.0000 
     65 O          29.8060    5.8160   32.1560 O.2       7 ALL1        0.0000 
     66 O          30.8350    3.9090   30.2210 O.2       4 ALP1        0.0000 
     67 O          29.0705    4.5720   31.3500 O.2       1 ALC1        0.0000 
     68 O          28.3350    3.3280   30.5440 O.2       4 ALP1        0.0000 
     69 CA         31.9060    7.4035   35.2250 C.3       3 GLC5        0.0000 
     70 CA         29.8400    6.3930   34.5270 C.3       9 GLL5        0.0000 
     71 CA         28.0040   11.3435   38.7960 C.3       3 GLC5        0.0000 
     72 CA         26.6130   12.4200   37.9750 C.3       9 GLL5        0.0000 
     73 CA         25.0392   13.0592   36.8882 C.3       3 GLC5        0.0000 
     74 CA         23.8510   14.2580   35.6330 C.3       6 GLP5        0.0000 
     75 CA         24.8445   13.1220   38.7280 C.3       3 GLC5        0.0000 
     76 CA         22.8810   13.3800   38.9660 C.3       6 GLP5        0.0000 
     77 CA         27.7135   11.1758   39.8090 C.3       3 GLC5        0.0000 
     78 CA         26.6110   13.0940   40.3530 C.3       9 GLL5        0.0000 
     79 CA         24.5817   13.4162   40.5820 C.3       3 GLC5        0.0000 
     80 CA         22.8280   14.0550   40.3660 C.3       6 GLP5        0.0000 
     81 CA         27.4303   10.5048   39.0427 C.3       3 GLC5        0.0000 
     82 CA         25.4790   11.0720   39.6550 C.3       9 GLL5        0.0000 
     83 CA         24.2707   12.2832   38.9748 C.3       3 GLC5        0.0000 
     84 CA         25.8420   11.3010   38.3120 C.3       9 GLL5        0.0000 
     85 CA         25.6868    8.1520   38.1560 C.3       3 GLC5        0.0000 
     86 CA         25.4510   10.3450   37.3680 C.3       9 GLL5        0.0000 
     87 CA         27.5287   10.0042   37.9555 C.3       3 GLC5        0.0000 
     88 CA         23.8623   11.6860   38.2290 C.3       3 GLC5        0.0000 
     89 CA         24.7930    8.4765   32.4970 C.3       3 GLC5        0.0000 
     90 CA         29.4277    8.7105   33.4467 C.3       3 GLC5        0.0000 
     91 CA         27.6880    7.8120   34.3280 C.3       9 GLL5        0.0000 
     92 CA         27.2602    5.9340   33.7678 C.3       3 GLC5        0.0000 
     93 CA         28.6630    7.1800   34.4510 C.3       9 GLL5        0.0000 
     94 CA         26.3450    4.3720   33.1460 C.3       6 GLP5        0.0000 
     95 CA         24.3464   10.6071   35.2050 C.3       3 GLC5        0.0000 
     96 CA         23.6820   12.1700   34.2670 C.3       6 GLP5        0.0000 
@<TRIPOS>BOND
@<TRIPOS>SUBSTRUCTURE
     1 ALC1       57 GROUP        1 X    ALC  0     ROOT ALC X 1
     2 SEC2       46 GROUP        1 X    SEC  0     **** SEC X 2
     3 GLC5        1 GROUP        1 X    GLC  0     **** GLC X 6
     4 ALP1       59 GROUP        1 Y    ALP  0     ROOT ALP Y 8
     5 SEP2       48 GROUP        1 Y    SEP  0     **** SEP Y 9
     6 GLP5        3 GROUP        1 Y    GLP  0     **** GLP Y 13
     7 ALL1       58 GROUP        1 Z    ALL  0     ROOT ALL Z 15
     8 SEL2       47 GROUP        1 Z    SEL  0     **** SEL Z 16
     9 GLL5        2 GROUP        1 Z    GLL  0     **** GLL Z 20
@<TRIPOS>SET

