#    Name: 3eek_53S_2_ligand
#    Modification time : Tue Mar 25 01:37:34 2014

@<TRIPOS>MOLECULE
3eek_53S_2_ligand
   52    54     1     0     0
SMALL
NO_CHARGES


@<TRIPOS>ATOM
      1 C6         29.8400    6.3930   34.5270 C.ar      1 53S229      0.0000 
      2 C5         30.5220    6.2590   35.7650 C.ar      1 53S229      0.0000 
      3 C2         22.5460    6.6350   36.2220 C.3       1 53S229      0.0000 
      4 C20        26.6130   12.4200   37.9750 C.ar      1 53S229      0.0000 
      5 C21        27.0030   13.3080   39.0050 C.ar      1 53S229      0.0000 
      6 C22        26.6110   13.0940   40.3530 C.ar      1 53S229      0.0000 
      7 C26        27.0450   14.0900   41.4810 C.3       1 53S229      0.0000 
      8 C23        25.8430   11.9630   40.6790 C.ar      1 53S229      0.0000 
      9 C24        25.4790   11.0720   39.6550 C.ar      1 53S229      0.0000 
     10 C25        25.8420   11.3010   38.3120 C.ar      1 53S229      0.0000 
     11 C18        25.4510   10.3450   37.3680 C.ar      1 53S229      0.0000 
     12 C19        26.2640   10.0260   36.2500 C.ar      1 53S229      0.0000 
     13 C17        24.2360    9.6390   37.6160 C.ar      1 53S229      0.0000 
     14 C16        23.7930    8.6290   36.7380 C.ar      1 53S229      0.0000 
     15 O17        22.6040    7.9290   36.9450 O.3       1 53S229      0.0000 
     16 C15        24.6000    8.3420   35.6340 C.ar      1 53S229      0.0000 
     17 C14        25.7930    9.0200   35.3910 C.ar      1 53S229      0.0000 
     18 C12        26.4240    8.5170   34.1220 C.3       1 53S229      0.0000 
     19 C13        26.3860    9.4690   32.9400 C.3       1 53S229      0.0000 
     20 C11        27.6880    7.8120   34.3280 C.1       1 53S229      0.0000 
     21 C10        28.6630    7.1800   34.4510 C.1       1 53S229      0.0000 
     22 C8         30.0650    6.9110   37.1290 C.3       1 53S229      0.0000 
     23 N4         31.6400    5.5180   35.7540 N.ar      1 53S229      0.0000 
     24 C3         32.1380    4.9130   34.6620 C.ar      1 53S229      0.0000 
     25 N7         33.2850    4.2220   34.8030 N.pl3     1 53S229      0.0000 
     26 N2         31.5200    5.0280   33.4650 N.ar      1 53S229      0.0000 
     27 C1         30.3750    5.7420   33.3490 C.ar      1 53S229      0.0000 
     28 N9         29.8060    5.8160   32.1560 N.pl3     1 53S229      0.0000 
     29 H          26.8890   12.5959   37.0168 H         1 53S229      0.0000 
     30 H          27.5827   14.1265   38.7750 H         1 53S229      0.0000 
     31 H          25.5561   11.7926   41.6379 H         1 53S229      0.0000 
     32 H          24.9313   10.2269   39.8903 H         1 53S229      0.0000 
     33 H          27.1289   10.4984   36.0877 H         1 53S229      0.0000 
     34 H          23.6826    9.8752   38.4466 H         1 53S229      0.0000 
     35 H          24.2985    7.5963   34.9717 H         1 53S229      0.0000 
     36 H          25.6722    7.6502   33.7836 H         1 53S229      0.0000 
     37 H          33.6442    3.7919   33.9748 H         1 53S229      0.0000 
     38 H          33.6754    4.2005   35.7234 H         1 53S229      0.0000 
     39 H          29.9085    5.0130   31.5690 H         1 53S229      0.0000 
     40 H          29.3252    6.6682   31.9499 H         1 53S229      0.0000 
     41 H          22.6241    6.7585   35.2327 H         1 53S229      0.0000 
     42 H          23.2846    6.0208   36.4999 H         1 53S229      0.0000 
     43 H          21.6857    6.1538   36.3903 H         1 53S229      0.0000 
     44 H          28.0400   14.1484   41.5623 H         1 53S229      0.0000 
     45 H          26.7102   15.0162   41.3076 H         1 53S229      0.0000 
     46 H          26.6935   13.8140   42.3756 H         1 53S229      0.0000 
     47 H          26.8619   10.3260   33.1379 H         1 53S229      0.0000 
     48 H          26.8194    9.0733   32.1303 H         1 53S229      0.0000 
     49 H          25.4488    9.7064   32.6843 H         1 53S229      0.0000 
     50 H          30.6907    6.6863   37.8760 H         1 53S229      0.0000 
     51 H          30.0261    7.9085   37.0692 H         1 53S229      0.0000 
     52 H          29.1559    6.5982   37.4040 H         1 53S229      0.0000 
@<TRIPOS>BOND
     1    2    1 ar   
     2   21    1 1    
     3   27    1 ar   
     4   22    2 1    
     5   23    2 ar   
     6   15    3 1    
     7   41    3 1    
     8   42    3 1    
     9   43    3 1    
    10    5    4 ar   
    11   10    4 ar   
    12   29    4 1    
    13    6    5 ar   
    14   30    5 1    
    15    7    6 1    
    16    8    6 ar   
    17   44    7 1    
    18   45    7 1    
    19   46    7 1    
    20    9    8 ar   
    21   31    8 1    
    22   10    9 ar   
    23   32    9 1    
    24   11   10 1    
    25   12   11 ar   
    26   13   11 ar   
    27   17   12 ar   
    28   33   12 1    
    29   14   13 ar   
    30   34   13 1    
    31   15   14 1    
    32   16   14 ar   
    33   17   16 ar   
    34   35   16 1    
    35   18   17 1    
    36   19   18 1    
    37   20   18 1    
    38   36   18 1    
    39   47   19 1    
    40   48   19 1    
    41   49   19 1    
    42   21   20 3    
    43   50   22 1    
    44   51   22 1    
    45   52   22 1    
    46   24   23 ar   
    47   25   24 1    
    48   26   24 ar   
    49   37   25 1    
    50   38   25 1    
    51   27   26 ar   
    52   28   27 1    
    53   39   28 1    
    54   40   28 1    
@<TRIPOS>SUBSTRUCTURE
     1 53S229      1 GROUP   
@<TRIPOS>SET

