#    Name: 2chw_039_1_INTS_M
#    Modification time : Mon Mar 24 23:50:10 2014

@<TRIPOS>MOLECULE
2chw_039_1_INTS_M
   66     0     3     0     0
SMALL
NO_CHARGES


@<TRIPOS>ATOM
      1 CA         50.6800   14.8875   32.1300 C.3       1 GLC5        0.0000 
      2 CA         50.8990   16.3190   31.0490 C.3       3 GLL5        0.0000 
      3 CA         50.4610   13.4560   33.2110 C.3       2 GLP5        0.0000 
      4 CA         49.3345   16.1485   29.5090 C.3       1 GLC5        0.0000 
      5 CA         47.7700   15.9780   27.9690 C.3       2 GLP5        0.0000 
      6 CA         49.8660   21.3365   30.9415 C.3       1 GLC5        0.0000 
      7 CA         48.6960   19.8030   31.0690 C.3       3 GLL5        0.0000 
      8 CA         51.0360   22.8700   30.8140 C.3       2 GLP5        0.0000 
      9 CA         45.7385   19.1380   33.8150 C.3       1 GLC5        0.0000 
     10 CA         47.1210   18.7960   32.5900 C.3       3 GLL5        0.0000 
     11 CA         44.3560   19.4800   35.0400 C.3       2 GLP5        0.0000 
     12 CA         46.6305   16.8560   36.3795 C.3       1 GLC5        0.0000 
     13 CA         47.6950   15.4550   35.5310 C.3       3 GLL5        0.0000 
     14 CA         45.5660   18.2570   37.2280 C.3       2 GLP5        0.0000 
     15 CA         51.1320   15.5285   38.3450 C.3       1 GLC5        0.0000 
     16 CA         49.4490   16.3440   37.5170 C.3       3 GLL5        0.0000 
     17 CA         52.8150   14.7130   39.1730 C.3       2 GLP5        0.0000 
     18 CA         49.0000   15.8980   39.6585 C.3       1 GLC5        0.0000 
     19 CA         48.5510   15.4520   41.8000 C.3       2 GLP5        0.0000 
     20 CA         47.9945   17.0375   38.5175 C.3       1 GLC5        0.0000 
     21 CA         46.5400   17.7310   39.5180 C.3       2 GLP5        0.0000 
     22 CA         48.1740   14.8390   39.7060 C.3       1 GLC5        0.0000 
     23 CA         47.7970   14.2260   37.6120 C.3       3 GLL5        0.0000 
     24 CA         45.8065   11.7725   36.6480 C.3       1 GLC5        0.0000 
     25 CA         46.8480   13.3370   37.1520 C.3       3 GLL5        0.0000 
     26 CA         44.7650   10.2080   36.1440 C.3       2 GLP5        0.0000 
     27 CA         45.5065   16.2550   35.5255 C.3       1 GLC5        0.0000 
     28 CA         46.7300   14.5650   35.0630 C.3       3 GLL5        0.0000 
     29 CA         44.2830   17.9450   35.9880 C.3       2 GLP5        0.0000 
     30 CA         43.8370   14.2635   29.5965 C.3       1 GLC5        0.0000 
     31 CA         45.2080   13.0480   30.3300 C.3       3 GLL5        0.0000 
     32 CA         42.4660   15.4790   28.8630 C.3       2 GLP5        0.0000 
     33 CA         48.1145    9.8650   30.2080 C.3       1 GLC5        0.0000 
     34 CA         46.8160   11.3990   29.7150 C.3       3 GLL5        0.0000 
     35 CA         49.4130    8.3310   30.7010 C.3       2 GLP5        0.0000 
     36 CA         44.1340    9.5845   30.3845 C.3       1 GLC5        0.0000 
     37 CA         44.5940   11.0010   29.3190 C.3       3 GLL5        0.0000 
     38 CA         43.6740    8.1680   31.4500 C.3       2 GLP5        0.0000 
     39 CA         43.6390   11.9945   28.0625 C.3       1 GLC5        0.0000 
     40 CA         42.6840   12.9880   26.8060 C.3       2 GLP5        0.0000 
     41 CA         48.5282   17.0452   29.7368 C.3       1 GLC5        0.0000 
     42 CA         49.0900   17.5720   31.8950 C.3       3 GLL5        0.0000 
     43 CA         50.4012   19.6325   29.7042 C.3       1 GLC5        0.0000 
     44 CA         49.4830   18.6530   31.1140 C.3       3 GLL5        0.0000 
     45 CA         51.7130   20.0370   28.3170 C.3       2 GLP5        0.0000 
     46 CA         46.5300   19.3306   30.3678 C.3       1 GLC5        0.0000 
     47 CA         45.4490   19.3430   28.7230 C.3       2 GLP5        0.0000 
     48 CA         49.5485   14.0373   37.4400 C.3       1 GLC5        0.0000 
     49 CA         48.2370   15.2870   36.8230 C.3       3 GLL5        0.0000 
     50 CA         50.2540   12.2590   37.7100 C.3       2 GLP5        0.0000 
     51 CA         48.7882   13.0203   37.5460 C.3       1 GLC5        0.0000 
     52 CA         46.5053   15.6704   37.8019 C.3       1 GLC5        0.0000 
     53 CA         45.5780   17.2940   38.4190 C.3       2 GLP5        0.0000 
     54 CA         45.1249   13.9361   37.6260 C.3       1 GLC5        0.0000 
     55 CA         43.4300   14.2190   38.6170 C.3       2 GLP5        0.0000 
     56 CA         46.3762   12.6060   34.5512 C.3       1 GLC5        0.0000 
     57 CA         46.3170   13.5250   35.8880 C.3       3 GLL5        0.0000 
     58 CA         46.2290   11.1670   33.6270 C.3       2 GLP5        0.0000 
     59 CA         45.7428   15.1950   29.4688 C.3       1 GLC5        0.0000 
     60 CA         45.9320   15.7890   31.5640 C.3       3 GLL5        0.0000 
     61 CA         46.2030   15.1960   27.6390 C.3       2 GLP5        0.0000 
     62 CA         43.8743   15.3365   30.0808 C.3       1 GLC5        0.0000 
     63 CA         44.6330   14.5990   31.0330 C.3       3 GLL5        0.0000 
     64 CA         46.2841   11.6457   31.8175 C.3       1 GLC5        0.0000 
     65 CA         46.2711   13.6602   28.8235 C.3       1 GLC5        0.0000 
     66 CA         46.5170   12.6520   30.2720 C.3       3 GLL5        0.0000 
@<TRIPOS>BOND
@<TRIPOS>SUBSTRUCTURE
     1 GLC5        1 GROUP        1 X    GLC  0     ROOT GLC X 6
     2 GLP5        3 GROUP        1 Y    GLP  0     ROOT GLP Y 13
     3 GLL5        2 GROUP        1 Z    GLL  0     ROOT GLL Z 20
@<TRIPOS>SET

