#    Name: 2chw_039_1_ligand
#    Modification time : Mon Mar 24 23:50:10 2014

@<TRIPOS>MOLECULE
2chw_039_1_ligand
   46    50     1     0     0
SMALL
NO_CHARGES


@<TRIPOS>ATOM
      1 CAU        50.8990   16.3190   31.0490 C.3       1 0392093     0.0000 
      2 OAT        49.8180   16.4300   31.9910 O.3       1 0392093     0.0000 
      3 CAP        49.0900   17.5720   31.8950 C.ar      1 0392093     0.0000 
      4 CAQ        49.4830   18.6530   31.1140 C.ar      1 0392093     0.0000 
      5 CAR        48.6960   19.8030   31.0690 C.ar      1 0392093     0.0000 
      6 CAJ        47.5060   19.8780   31.8010 C.ar      1 0392093     0.0000 
      7 CAI        47.1210   18.7960   32.5900 C.ar      1 0392093     0.0000 
      8 CAH        47.9120   17.6500   32.6170 C.ar      1 0392093     0.0000 
      9 NAG        47.4980   16.5900   33.4170 N.am      1 0392093     0.0000 
     10 CAF        48.0760   16.4810   34.6750 C.2       1 0392093     0.0000 
     11 OAB        48.9180   17.3100   34.9960 O.2       1 0392093     0.0000 
     12 CAE        47.6950   15.4550   35.5310 C.ar      1 0392093     0.0000 
     13 CAD        48.2370   15.2870   36.8230 C.ar      1 0392093     0.0000 
     14 CL         49.4490   16.3440   37.5170 Cl        1 0392093     0.0000 
     15 CAC        47.7970   14.2260   37.6120 C.ar      1 0392093     0.0000 
     16 CAK        46.8480   13.3370   37.1520 C.ar      1 0392093     0.0000 
     17 CAL        46.3170   13.5250   35.8880 C.ar      1 0392093     0.0000 
     18 CAM        46.7300   14.5650   35.0630 C.ar      1 0392093     0.0000 
     19 NAN        46.1850   14.6820   33.8300 N.2       1 0392093     0.0000 
     20 CAO        46.5280   15.6630   32.9870 C.2       1 0392093     0.0000 
     21 CAS        45.9320   15.7890   31.5640 C.3       1 0392093     0.0000 
     22 S6         44.6330   14.5990   31.0330 S.3       1 0392093     0.0000 
     23 C6         45.2080   13.0480   30.3300 C.ar      1 0392093     0.0000 
     24 C5         46.5170   12.6520   30.2720 C.ar      1 0392093     0.0000 
     25 N7         47.6430   13.2240   30.6340 N.2       1 0392093     0.0000 
     26 C8         48.6300   12.3630   30.3220 C.2       1 0392093     0.0000 
     27 N9         48.1340   11.2520   29.7580 N.pl3     1 0392093     0.0000 
     28 C4         46.8160   11.3990   29.7150 C.ar      1 0392093     0.0000 
     29 N3         45.8470   10.5960   29.2640 N.ar      1 0392093     0.0000 
     30 C2         44.5940   11.0010   29.3190 C.ar      1 0392093     0.0000 
     31 N1         44.2880   12.1810   29.8280 N.ar      1 0392093     0.0000 
     32 H          50.3532   18.6061   30.5693 H         1 0392093     0.0000 
     33 H          48.9909   20.6043   30.4934 H         1 0392093     0.0000 
     34 H          46.9271   20.7185   31.7557 H         1 0392093     0.0000 
     35 H          46.2622   18.8433   33.1461 H         1 0392093     0.0000 
     36 H          48.1951   14.1076   38.5640 H         1 0392093     0.0000 
     37 H          46.5412   12.5530   37.7325 H         1 0392093     0.0000 
     38 H          45.5845   12.8679   35.5412 H         1 0392093     0.0000 
     39 H          46.6847   15.6624   30.7752 H         1 0392093     0.0000 
     40 H          45.4328   16.7520   31.3960 H         1 0392093     0.0000 
     41 H          49.5853   12.5292   30.4868 H         1 0392093     0.0000 
     42 H          48.6433   10.4978   29.4470 H         1 0392093     0.0000 
     43 H          43.8248   10.3760   28.9523 H         1 0392093     0.0000 
     44 H          51.5584   17.0638   31.1510 H         1 0392093     0.0000 
     45 H          51.4037   15.4631   31.1620 H         1 0392093     0.0000 
     46 H          50.5723   16.3441   30.1042 H         1 0392093     0.0000 
@<TRIPOS>BOND
     1    2    1 1    
     2   44    1 1    
     3   45    1 1    
     4   46    1 1    
     5    3    2 1    
     6    4    3 ar   
     7    8    3 ar   
     8    5    4 ar   
     9   32    4 1    
    10    6    5 ar   
    11   33    5 1    
    12    7    6 ar   
    13   34    6 1    
    14    8    7 ar   
    15   35    7 1    
    16    9    8 1    
    17   10    9 am   
    18   20    9 1    
    19   11   10 2    
    20   12   10 1    
    21   13   12 ar   
    22   18   12 ar   
    23   14   13 1    
    24   15   13 ar   
    25   16   15 ar   
    26   36   15 1    
    27   17   16 ar   
    28   37   16 1    
    29   18   17 ar   
    30   38   17 1    
    31   19   18 1    
    32   20   19 2    
    33   21   20 1    
    34   22   21 1    
    35   39   21 1    
    36   40   21 1    
    37   23   22 1    
    38   24   23 ar   
    39   31   23 ar   
    40   25   24 1    
    41   28   24 ar   
    42   26   25 2    
    43   27   26 1    
    44   41   26 1    
    45   28   27 1    
    46   42   27 1    
    47   29   28 ar   
    48   30   29 ar   
    49   31   30 ar   
    50   43   30 1    
@<TRIPOS>SUBSTRUCTURE
     1 0392093     1 GROUP   
@<TRIPOS>SET

