#    Name: 3vtb_TKA_1_INTS_M
#    Modification time : Tue Mar 25 01:34:32 2014

@<TRIPOS>MOLECULE
3vtb_TKA_1_INTS_M
  138     0     9     0     0
SMALL
NO_CHARGES


@<TRIPOS>ATOM
      1 CA          8.1755   -3.2145   25.9385 C.3       3 GLC5        0.0000 
      2 CA          7.3010   -1.7880   27.3790 C.3       9 GLL5        0.0000 
      3 CA          9.0500   -4.6410   24.4980 C.3       6 GLP5        0.0000 
      4 CA          8.0875    2.0955   30.0970 C.3       3 GLC5        0.0000 
      5 CA          7.7880    0.2660   28.9130 C.3       9 GLL5        0.0000 
      6 CA          8.3870    3.9250   31.2810 C.3       6 GLP5        0.0000 
      7 CA         10.5805    0.0340   30.5150 C.3       3 GLC5        0.0000 
      8 CA          9.2760   -0.2350   29.1370 C.3       9 GLL5        0.0000 
      9 CA         11.8850    0.3030   31.8930 C.3       6 GLP5        0.0000 
     10 CA          9.7085   -1.8005   25.3075 C.3       3 GLC5        0.0000 
     11 CA          9.6700   -0.1050   26.5280 C.3       9 GLL5        0.0000 
     12 CA          9.7470   -3.4960   24.0870 C.3       6 GLP5        0.0000 
     13 CA          5.2790   -1.2420   26.7470 C.3       3 GLC5        0.0000 
     14 CA          7.2270   -0.8330   26.1030 C.3       9 GLL5        0.0000 
     15 CA          3.3310   -1.6510   27.3910 C.3       6 GLP5        0.0000 
     16 CA          8.4870   -2.1645   25.0950 C.3       3 GLC5        0.0000 
     17 CA          6.2000    1.2810   28.8660 C.3       3 GLC5        0.0000 
     18 CA          7.7290    1.2260   27.6380 C.3       9 GLL5        0.0000 
     19 CA          4.6710    1.3360   30.0940 C.3       6 GLP5        0.0000 
     20 CA          7.8025    3.3420   27.3065 C.3       3 GLC5        0.0000 
     21 CA          7.8760    5.4580   26.9750 C.3       6 GLP5        0.0000 
     22 CA          6.4985    1.8170   26.1545 C.3       3 GLC5        0.0000 
     23 CA          5.2680    2.4080   24.6710 C.3       6 GLP5        0.0000 
     24 CA         12.6015   -3.3730   27.9700 C.3       3 GLC5        0.0000 
     25 CA         11.1890   -1.6950   27.9480 C.3       9 GLL5        0.0000 
     26 CA         14.0140   -5.0510   27.9920 C.3       6 GLP5        0.0000 
     27 N          11.5740   -1.7690   30.2095 N.am      2 SEC2        0.0000 
     28 N          11.2480   -2.5810   29.0770 N.am      8 SEL2        0.0000 
     29 N          11.9000   -0.9570   31.3420 N.am      5 SEP2        0.0000 
     30 N          12.0245   -3.4925   28.4825 N.am      2 SEC2        0.0000 
     31 N          12.8010   -4.4040   27.8880 N.am      5 SEP2        0.0000 
     32 CA         15.6785    0.3625   27.9390 C.3       3 GLC5        0.0000 
     33 CA         13.7610    1.4000   28.4430 C.3       9 GLL5        0.0000 
     34 CA         17.5960   -0.6750   27.4350 C.3       6 GLP5        0.0000 
     35 CA         15.0925    1.1485   30.1120 C.3       3 GLC5        0.0000 
     36 CA         16.4240    0.8970   31.7810 C.3       6 GLP5        0.0000 
     37 CA         10.5545    4.8170   28.7260 C.3       3 GLC5        0.0000 
     38 CA         11.9080    3.0980   28.6240 C.3       9 GLL5        0.0000 
     39 CA          9.2010    6.5360   28.8280 C.3       6 GLP5        0.0000 
     40 CA         12.8220    3.8715   30.3940 C.3       3 GLC5        0.0000 
     41 CA         13.7360    4.6450   32.1640 C.3       6 GLP5        0.0000 
     42 CA         10.1475    3.5115   29.9525 C.3       3 GLC5        0.0000 
     43 CA         11.8965    1.7005   30.2585 C.3       3 GLC5        0.0000 
     44 CA         11.0525    6.2540   28.0200 C.3       3 GLC5        0.0000 
     45 CA         12.9040    5.9720   27.2120 C.3       9 GLL5        0.0000 
     46 CA         13.4910    6.4050   29.1045 C.3       3 GLC5        0.0000 
     47 CA         14.0780    6.8380   30.9970 C.3       6 GLP5        0.0000 
     48 CA         10.9565    7.4340   26.4555 C.3       3 GLC5        0.0000 
     49 CA         12.7860    7.2870   26.3450 C.3       9 GLL5        0.0000 
     50 CA          9.1270    7.5810   26.5660 C.3       6 GLP5        0.0000 
     51 CA         11.8075    7.3045   24.5340 C.3       3 GLC5        0.0000 
     52 CA         10.8290    7.3220   22.7230 C.3       6 GLP5        0.0000 
     53 CA         11.7875    5.8415   23.9340 C.3       3 GLC5        0.0000 
     54 CA         12.7460    4.3610   25.1450 C.3       9 GLL5        0.0000 
     55 CA         11.4640    3.1845   24.4530 C.3       3 GLC5        0.0000 
     56 CA         10.1820    2.0080   23.7610 C.3       6 GLP5        0.0000 
     57 CA         16.4020    9.1730   17.6800 C.3       3 GLC5        0.0000 
     58 CA         15.1680    8.9610   19.3860 C.3       9 GLL5        0.0000 
     59 CA         17.6360    9.3850   15.9740 C.3       6 GLP5        0.0000 
     60 CA         16.3810    5.1870   18.4740 C.3       3 GLC5        0.0000 
     61 CA         15.0440    6.4000   19.2520 C.3       9 GLL5        0.0000 
     62 CA         17.7180    3.9740   17.6960 C.3       6 GLP5        0.0000 
     63 CA         16.9415    6.5295   20.0360 C.3       3 GLC5        0.0000 
     64 CA         18.8390    6.6590   20.8200 C.3       6 GLP5        0.0000 
     65 CA         12.4115    6.6845   20.4965 C.3       3 GLC5        0.0000 
     66 CA         14.4380    6.3890   20.7030 C.3       9 GLL5        0.0000 
     67 CA         10.3850    6.9800   20.2900 C.3       6 GLP5        0.0000 
     68 CA         14.6295    4.3450   21.0935 C.3       3 GLC5        0.0000 
     69 CA         14.8210    2.3010   21.4840 C.3       6 GLP5        0.0000 
     70 CA         16.2490    6.3015   21.3780 C.3       3 GLC5        0.0000 
     71 CA         18.0600    6.2140   22.0530 C.3       6 GLP5        0.0000 
     72 N          14.7515    5.1090   17.0970 N.am      2 SEC2        0.0000 
     73 N          14.4820    5.3100   18.4630 N.am      8 SEL2        0.0000 
     74 N          15.0210    4.9080   15.7310 N.am      5 SEP2        0.0000 
     75 O          13.2260    4.8070   18.5190 O.2       1 ALC1        0.0000 
     76 O          14.4820    5.3100   18.4630 O.2       7 ALL1        0.0000 
     77 O          11.9700    4.3040   18.5750 O.2       4 ALP1        0.0000 
     78 N          17.1610    9.4205   18.3635 N.am      2 SEC2        0.0000 
     79 N          16.6110    8.8940   19.4860 N.am      8 SEL2        0.0000 
     80 N          17.7110    9.9470   17.2410 N.am      5 SEP2        0.0000 
     81 O          17.0120    9.8875   20.4725 O.2       1 ALC1        0.0000 
     82 O          16.6110    8.8940   19.4860 O.2       7 ALL1        0.0000 
     83 O          17.4130   10.8810   21.4590 O.2       4 ALP1        0.0000 
     84 CA          7.7607   -3.9337   28.0645 C.3       3 GLC5        0.0000 
     85 CA          8.7920   -2.2970   27.5990 C.3       9 GLL5        0.0000 
     86 CA          7.4750   -5.8250   28.6400 C.3       6 GLP5        0.0000 
     87 CA          5.2007   -1.5232   27.7077 C.3       3 GLC5        0.0000 
     88 CA          6.4960   -2.3643   25.2620 C.3       3 GLC5        0.0000 
     89 CA          5.7280   -3.4180   23.7830 C.3       6 GLP5        0.0000 
     90 CA          5.9925    0.4838   29.4428 C.3       3 GLC5        0.0000 
     91 CA          6.8400   -1.0030   28.6700 C.3       9 GLL5        0.0000 
     92 CA          6.3085   -1.3422   30.1748 C.3       3 GLC5        0.0000 
     93 CA          5.3030   -2.3160   31.5580 C.3       6 GLP5        0.0000 
     94 CA          9.5560    1.0827   25.0950 C.3       3 GLC5        0.0000 
     95 CA          8.1900    0.4200   26.3300 C.3       9 GLL5        0.0000 
     96 CA          6.4882    1.1007   25.4438 C.3       3 GLC5        0.0000 
     97 CA         11.7855   -0.4378   29.9703 C.3       3 GLC5        0.0000 
     98 CA         12.1830   -0.6620   28.1470 C.3       9 GLL5        0.0000 
     99 CA          9.9913   -2.5916   25.9565 C.3       3 GLC5        0.0000 
    100 CA         13.1772   -0.9896   26.4299 C.3       3 GLC5        0.0000 
    101 CA         14.0460   -1.5100   24.6910 C.3       6 GLP5        0.0000 
    102 CA         12.6155    0.5615   30.1298 C.3       3 GLC5        0.0000 
    103 CA         12.9310    0.2400   28.2900 C.3       9 GLL5        0.0000 
    104 CA         16.2050    3.5105   28.2458 C.3       3 GLC5        0.0000 
    105 CA         14.1310    3.6060   27.2420 C.3       9 GLL5        0.0000 
    106 CA         17.6900    3.7140   29.6900 C.3       6 GLP5        0.0000 
    107 CA         17.0322    5.8910   26.5775 C.3       3 GLC5        0.0000 
    108 CA         15.8420    4.1320   25.4820 C.3       9 GLL5        0.0000 
    109 CA         18.5890    7.0250   27.3900 C.3       6 GLP5        0.0000 
    110 CA         17.0822    2.1900   25.5953 C.3       3 GLC5        0.0000 
    111 CA         18.5890    0.8100   25.2690 C.3       6 GLP5        0.0000 
    112 CA         13.1300    9.3230   26.8233 C.3       3 GLC5        0.0000 
    113 CA         14.2000    7.7590   25.9040 C.3       9 GLL5        0.0000 
    114 CA         12.7670   11.1230   27.5220 C.3       6 GLP5        0.0000 
    115 CA         15.9847    8.1137   26.0333 C.3       3 GLC5        0.0000 
    116 CA         17.4300    9.0430   26.5670 C.3       6 GLP5        0.0000 
    117 CA         16.5497    6.4158   23.2485 C.3       3 GLC5        0.0000 
    118 CA         14.8790    6.6100   25.0950 C.3       9 GLL5        0.0000 
    119 CA         16.6095    8.1085   23.8825 C.3       3 GLC5        0.0000 
    120 CA         15.2000    6.6250   23.7930 C.3       9 GLL5        0.0000 
    121 CA         18.1210    9.0450   24.4390 C.3       6 GLP5        0.0000 
    122 CA         16.4490    6.9510   22.1355 C.3       3 GLC5        0.0000 
    123 CA         14.6800    7.6570   21.5770 C.3       9 GLL5        0.0000 
    124 CA         12.9355    9.5433   19.4237 C.3       3 GLC5        0.0000 
    125 CA         14.5420    8.9940   20.8170 C.3       9 GLL5        0.0000 
    126 CA         11.0160   10.1090   18.7460 C.3       6 GLP5        0.0000 
    127 CA         12.7595    7.8315   22.1202 C.3       3 GLC5        0.0000 
    128 CA         16.2930   10.4653   20.3468 C.3       3 GLC5        0.0000 
    129 CA         17.7310   11.9530   20.5920 C.3       6 GLP5        0.0000 
    130 CA         14.4265   10.6498   20.4778 C.3       3 GLC5        0.0000 
    131 CA         13.9980   12.3220   20.8540 C.3       6 GLP5        0.0000 
    132 CA         12.6660    8.9365   18.3685 C.3       3 GLC5        0.0000 
    133 CA         14.6770    7.7290   18.5700 C.3       9 GLL5        0.0000 
    134 CA         15.9059    7.7254   16.9847 C.3       3 GLC5        0.0000 
    135 CA         13.9550    7.7990   17.4120 C.3       9 GLL5        0.0000 
    136 CA         17.4040    8.0190   15.8080 C.3       6 GLP5        0.0000 
    137 CA         14.7379    9.9215   17.5575 C.3       3 GLC5        0.0000 
    138 CA         15.0370   11.7710   16.9200 C.3       6 GLP5        0.0000 
@<TRIPOS>BOND
@<TRIPOS>SUBSTRUCTURE
     1 ALC1       75 GROUP        1 X    ALC  0     ROOT ALC X 1
     2 SEC2       27 GROUP        1 X    SEC  0     **** SEC X 2
     3 GLC5        1 GROUP        1 X    GLC  0     **** GLC X 6
     4 ALP1       77 GROUP        1 Y    ALP  0     ROOT ALP Y 8
     5 SEP2       29 GROUP        1 Y    SEP  0     **** SEP Y 9
     6 GLP5        3 GROUP        1 Y    GLP  0     **** GLP Y 13
     7 ALL1       76 GROUP        1 Z    ALL  0     ROOT ALL Z 15
     8 SEL2       28 GROUP        1 Z    SEL  0     **** SEL Z 16
     9 GLL5        2 GROUP        1 Z    GLL  0     **** GLL Z 20
@<TRIPOS>SET

