#    Name: 3vtb_TKA_1_ligand
#    Modification time : Tue Mar 25 01:34:32 2014

@<TRIPOS>MOLECULE
3vtb_TKA_1_ligand
   86    91     1     0     0
SMALL
NO_CHARGES


@<TRIPOS>ATOM
      1 C29         9.7720   -1.0620   27.8090 C.3       1 TKA500      0.0000 
      2 C30         8.7920   -2.2970   27.5990 C.3       1 TKA500      0.0000 
      3 C31         7.3010   -1.7880   27.3790 C.3       1 TKA500      0.0000 
      4 C32         6.8400   -1.0030   28.6700 C.3       1 TKA500      0.0000 
      5 C33         7.7880    0.2660   28.9130 C.3       1 TKA500      0.0000 
      6 C34         9.2760   -0.2350   29.1370 C.3       1 TKA500      0.0000 
      7 C37         9.6700   -0.1050   26.5280 C.3       1 TKA500      0.0000 
      8 C36         7.2270   -0.8330   26.1030 C.3       1 TKA500      0.0000 
      9 C38         7.7290    1.2260   27.6380 C.3       1 TKA500      0.0000 
     10 C35         8.1900    0.4200   26.3300 C.3       1 TKA500      0.0000 
     11 C25        11.1890   -1.6950   27.9480 C.3       1 TKA500      0.0000 
     12 C24        12.1830   -0.6620   28.1470 C.1       1 TKA500      0.0000 
     13 O03        11.2480   -2.5810   29.0770 O.3       1 TKA500      0.0000 
     14 C23        12.9310    0.2400   28.2900 C.1       1 TKA500      0.0000 
     15 C22        13.7610    1.4000   28.4430 C.3       1 TKA500      0.0000 
     16 C20        13.0410    2.5410   27.6800 C.3       1 TKA500      0.0000 
     17 C21        11.9080    3.0980   28.6240 C.3       1 TKA500      0.0000 
     18 C17        14.1310    3.6060   27.2420 C.3       1 TKA500      0.0000 
     19 C13        13.6650    4.8330   26.3980 C.3       1 TKA500      0.0000 
     20 C14        15.1090    5.3820   26.0480 C.3       1 TKA500      0.0000 
     21 C15        15.8420    4.1320   25.4820 C.3       1 TKA500      0.0000 
     22 C16        15.3090    3.0080   26.3610 C.3       1 TKA500      0.0000 
     23 C12        12.9040    5.9720   27.2120 C.3       1 TKA500      0.0000 
     24 C11        12.7860    7.2870   26.3450 C.3       1 TKA500      0.0000 
     25 C09        14.2000    7.7590   25.9040 C.3       1 TKA500      0.0000 
     26 C08        14.8790    6.6100   25.0950 C.2       1 TKA500      0.0000 
     27 C18        12.7460    4.3610   25.1450 C.3       1 TKA500      0.0000 
     28 C07        15.2000    6.6250   23.7930 C.2       1 TKA500      0.0000 
     29 C06        14.9960    7.7190   22.8590 C.2       1 TKA500      0.0000 
     30 C05        14.6800    7.6570   21.5770 C.2       1 TKA500      0.0000 
     31 C04        14.5420    8.9940   20.8170 C.3       1 TKA500      0.0000 
     32 C03        15.1680    8.9610   19.3860 C.3       1 TKA500      0.0000 
     33 C02        14.6770    7.7290   18.5700 C.2       1 TKA500      0.0000 
     34 C01        15.0440    6.4000   19.2520 C.3       1 TKA500      0.0000 
     35 C10        14.4380    6.3890   20.7030 C.3       1 TKA500      0.0000 
     36 C28        13.9550    7.7990   17.4120 C.2       1 TKA500      0.0000 
     37 O01        14.4820    5.3100   18.4630 O.3       1 TKA500      0.0000 
     38 O02        16.6110    8.8940   19.4860 O.3       1 TKA500      0.0000 
     39 H           8.8206   -2.9142   28.4762 H         1 TKA500      0.0000 
     40 H           9.1033   -2.8414   26.7284 H         1 TKA500      0.0000 
     41 H           6.6716   -2.6183   27.2310 H         1 TKA500      0.0000 
     42 H           6.9156   -1.6489   29.5225 H         1 TKA500      0.0000 
     43 H           5.8362   -0.6527   28.5313 H         1 TKA500      0.0000 
     44 H           7.4575    0.7856   29.7589 H         1 TKA500      0.0000 
     45 H           9.9230    0.6005   29.2552 H         1 TKA500      0.0000 
     46 H           9.3100   -0.9038   29.9630 H         1 TKA500      0.0000 
     47 H           9.9627   -0.6686   25.6603 H         1 TKA500      0.0000 
     48 H          10.3241    0.7348   26.6800 H         1 TKA500      0.0000 
     49 H           6.2257   -0.4818   25.9928 H         1 TKA500      0.0000 
     50 H           7.5627   -1.3743   25.2473 H         1 TKA500      0.0000 
     51 H           8.4003    2.0434   27.7891 H         1 TKA500      0.0000 
     52 H           6.7219    1.5547   27.4987 H         1 TKA500      0.0000 
     53 H           8.1447    1.0502   25.4982 H         1 TKA500      0.0000 
     54 H          11.3927   -2.2324   27.0333 H         1 TKA500      0.0000 
     55 H          14.7330    1.2705   27.9958 H         1 TKA500      0.0000 
     56 H          13.8549    1.7040   29.4727 H         1 TKA500      0.0000 
     57 H          12.5931    2.1210   26.8059 H         1 TKA500      0.0000 
     58 H          14.6258    4.0095   28.1377 H         1 TKA500      0.0000 
     59 H          15.5383    5.6865   26.9601 H         1 TKA500      0.0000 
     60 H          16.8793    4.2480   25.6226 H         1 TKA500      0.0000 
     61 H          15.5499    3.9854   24.4808 H         1 TKA500      0.0000 
     62 H          14.9057    2.2200   25.7610 H         1 TKA500      0.0000 
     63 H          16.0706    2.6549   27.0235 H         1 TKA500      0.0000 
     64 H          13.4645    6.1876   28.1032 H         1 TKA500      0.0000 
     65 H          11.9176    5.6195   27.4519 H         1 TKA500      0.0000 
     66 H          12.3223    8.0514   26.9443 H         1 TKA500      0.0000 
     67 H          12.1913    7.0705   25.4744 H         1 TKA500      0.0000 
     68 H          14.7907    7.9721   26.7739 H         1 TKA500      0.0000 
     69 H          14.1059    8.6229   25.2748 H         1 TKA500      0.0000 
     70 H          15.6585    5.7563   23.3542 H         1 TKA500      0.0000 
     71 H          15.1318    8.6982   23.3206 H         1 TKA500      0.0000 
     72 H          15.0325    9.7859   21.3913 H         1 TKA500      0.0000 
     73 H          13.4814    9.2472   20.7251 H         1 TKA500      0.0000 
     74 H          14.8609    9.8488   18.8643 H         1 TKA500      0.0000 
     75 H          16.0989    6.3321   19.3293 H         1 TKA500      0.0000 
     76 H          13.3464    6.2226   20.6176 H         1 TKA500      0.0000 
     77 H          14.8450    5.5089   21.2380 H         1 TKA500      0.0000 
     78 H          12.2803    3.4528   29.4817 H         1 TKA500      0.0000 
     79 H          11.3999    3.8443   28.1940 H         1 TKA500      0.0000 
     80 H          11.2430    2.3906   28.8635 H         1 TKA500      0.0000 
     81 H          13.2412    3.7447   24.5326 H         1 TKA500      0.0000 
     82 H          11.9255    3.8763   25.4480 H         1 TKA500      0.0000 
     83 H          12.4409    5.1382   24.5947 H         1 TKA500      0.0000 
     84 H          10.2653   -2.6095   29.2604 H         1 TKA500      0.0000 
     85 H          13.5341    5.2295   18.7712 H         1 TKA500      0.0000 
     86 H          16.8410    9.4500   20.2847 H         1 TKA500      0.0000 
@<TRIPOS>BOND
     1    2    1 1    
     2    6    1 1    
     3    7    1 1    
     4   11    1 1    
     5    3    2 1    
     6   39    2 1    
     7   40    2 1    
     8    4    3 1    
     9    8    3 1    
    10   41    3 1    
    11    5    4 1    
    12   42    4 1    
    13   43    4 1    
    14    6    5 1    
    15    9    5 1    
    16   44    5 1    
    17   45    6 1    
    18   46    6 1    
    19   10    7 1    
    20   47    7 1    
    21   48    7 1    
    22   10    8 1    
    23   49    8 1    
    24   50    8 1    
    25   10    9 1    
    26   51    9 1    
    27   52    9 1    
    28   53   10 1    
    29   12   11 1    
    30   13   11 1    
    31   54   11 1    
    32   14   12 3    
    33   84   13 1    
    34   15   14 1    
    35   16   15 1    
    36   55   15 1    
    37   56   15 1    
    38   17   16 1    
    39   18   16 1    
    40   57   16 1    
    41   78   17 1    
    42   79   17 1    
    43   80   17 1    
    44   19   18 1    
    45   22   18 1    
    46   58   18 1    
    47   20   19 1    
    48   23   19 1    
    49   27   19 1    
    50   21   20 1    
    51   26   20 1    
    52   59   20 1    
    53   22   21 1    
    54   60   21 1    
    55   61   21 1    
    56   62   22 1    
    57   63   22 1    
    58   24   23 1    
    59   64   23 1    
    60   65   23 1    
    61   25   24 1    
    62   66   24 1    
    63   67   24 1    
    64   26   25 1    
    65   68   25 1    
    66   69   25 1    
    67   28   26 2    
    68   81   27 1    
    69   82   27 1    
    70   83   27 1    
    71   29   28 1    
    72   70   28 1    
    73   30   29 2    
    74   71   29 1    
    75   31   30 1    
    76   35   30 1    
    77   32   31 1    
    78   72   31 1    
    79   73   31 1    
    80   33   32 1    
    81   38   32 1    
    82   74   32 1    
    83   34   33 1    
    84   36   33 2    
    85   35   34 1    
    86   37   34 1    
    87   75   34 1    
    88   76   35 1    
    89   77   35 1    
    90   85   37 1    
    91   86   38 1    
@<TRIPOS>SUBSTRUCTURE
     1 TKA500      1 GROUP   
@<TRIPOS>SET

