#    Name: 4a2z_VIQ_1_INTS_M
#    Modification time : Tue Mar 25 04:53:19 2014

@<TRIPOS>MOLECULE
4a2z_VIQ_1_INTS_M
   54     0     6     0     0
SMALL
NO_CHARGES


@<TRIPOS>ATOM
      1 N           4.5605    8.7930   11.8890 N.am      1 SEC2        0.0000 
      2 N           4.0000    8.0150   12.8710 N.am      5 SEL2        0.0000 
      3 N           5.1210    9.5710   10.9070 N.am      3 SEP2        0.0000 
      4 CA          6.1590    3.9290   15.4305 C.3       2 GLC5        0.0000 
      5 CA          4.0920    3.8720   15.2430 C.3       6 GLL5        0.0000 
      6 CA          8.2260    3.9860   15.6180 C.3       4 GLP5        0.0000 
      7 CA          4.5055    1.2735   13.4970 C.3       2 GLC5        0.0000 
      8 CA          4.8770    3.3340   14.0770 C.3       6 GLL5        0.0000 
      9 CA          4.1340   -0.7870   12.9170 C.3       4 GLP5        0.0000 
     10 CA          6.6040    2.9990   14.4805 C.3       2 GLC5        0.0000 
     11 CA          8.3310    2.6640   14.8840 C.3       4 GLP5        0.0000 
     12 CA          3.8055    0.4475   14.6985 C.3       2 GLC5        0.0000 
     13 CA          3.4770    1.6820   16.4800 C.3       6 GLL5        0.0000 
     14 CA          5.2730    0.5175   16.2675 C.3       2 GLC5        0.0000 
     15 CA          7.0690   -0.6470   16.0550 C.3       4 GLP5        0.0000 
     16 CA          4.3980    2.8275   18.0805 C.3       2 GLC5        0.0000 
     17 CA          5.3190    3.9730   19.6810 C.3       4 GLP5        0.0000 
     18 CA          3.9375    0.6535   17.9805 C.3       2 GLC5        0.0000 
     19 CA          4.3980   -0.3750   19.4810 C.3       4 GLP5        0.0000 
     20 CA          1.6715    1.4225   16.4800 C.3       2 GLC5        0.0000 
     21 CA         -0.1340    1.1630   16.4800 C.3       4 GLP5        0.0000 
     22 N           1.9075    3.4055   18.1010 N.am      1 SEC2        0.0000 
     23 N           2.7910    3.9160   17.1170 N.am      5 SEL2        0.0000 
     24 N           1.0240    2.8950   19.0850 N.am      3 SEP2        0.0000 
     25 CA          3.7905    5.1375   18.6270 C.3       2 GLC5        0.0000 
     26 CA          2.2620    6.3020   17.5730 C.3       6 GLL5        0.0000 
     27 CA          2.7780    8.0430   17.4720 C.3       2 GLC5        0.0000 
     28 CA          3.2940    9.7840   17.3710 C.3       4 GLP5        0.0000 
     29 CA          1.7980    4.7715   18.9955 C.3       2 GLC5        0.0000 
     30 CA          1.3340    3.2410   20.4180 C.3       4 GLP5        0.0000 
     31 CA          2.1475    7.2430   19.1550 C.3       2 GLC5        0.0000 
     32 CA          2.0330    8.1840   20.7370 C.3       4 GLP5        0.0000 
     33 CA          5.9415    7.0170    9.7960 C.3       2 GLC5        0.0000 
     34 CA          5.5420    6.2600   11.4900 C.3       6 GLL5        0.0000 
     35 CA          6.3410    7.7740    8.1020 C.3       4 GLP5        0.0000 
     36 CA          5.1990    2.6500    8.1075 C.3       2 GLC5        0.0000 
     37 CA          5.3430    4.1430    9.6140 C.3       6 GLL5        0.0000 
     38 CA          5.0550    1.1570    6.6010 C.3       4 GLP5        0.0000 
     39 CA          3.4550    5.0290    8.9600 C.3       2 GLC5        0.0000 
     40 CA          1.5670    5.9150    8.3060 C.3       4 GLP5        0.0000 
     41 CA          5.8420    5.9585    8.8580 C.3       2 GLC5        0.0000 
     42 CA          3.4500    1.4475    7.9995 C.3       2 GLC5        0.0000 
     43 CA          1.8450    1.7380    9.3980 C.3       6 GLL5        0.0000 
     44 CA          1.1235    3.6915    9.1880 C.3       2 GLC5        0.0000 
     45 CA          0.4020    5.6450    8.9780 C.3       4 GLP5        0.0000 
     46 CA          1.0390    1.8830    7.5665 C.3       2 GLC5        0.0000 
     47 CA          0.2330    2.0280    5.7350 C.3       4 GLP5        0.0000 
     48 CA          0.5285    3.3965   13.6415 C.3       2 GLC5        0.0000 
     49 CA          0.8910    5.1300   13.1760 C.3       6 GLL5        0.0000 
     50 CA          0.1660    1.6630   14.1070 C.3       4 GLP5        0.0000 
     51 CA          0.3305    5.8790   11.4335 C.3       2 GLC5        0.0000 
     52 CA         -0.2300    6.6280    9.6910 C.3       4 GLP5        0.0000 
     53 CA         -1.0955    5.4420   13.4320 C.3       2 GLC5        0.0000 
     54 CA         -3.0820    5.7540   13.6880 C.3       4 GLP5        0.0000 
@<TRIPOS>BOND
@<TRIPOS>SUBSTRUCTURE
     1 SEC2        1 GROUP        1 X    SEC  0     ROOT SEC X 2
     2 GLC5        4 GROUP        1 X    GLC  0     **** GLC X 6
     3 SEP2        3 GROUP        1 Y    SEP  0     ROOT SEP Y 9
     4 GLP5        6 GROUP        1 Y    GLP  0     **** GLP Y 13
     5 SEL2        2 GROUP        1 Z    SEL  0     ROOT SEL Z 16
     6 GLL5        5 GROUP        1 Z    GLL  0     **** GLL Z 20
@<TRIPOS>SET

