#    Name: 4a2z_VIQ_1_ligand
#    Modification time : Tue Mar 25 04:53:19 2014

@<TRIPOS>MOLECULE
4a2z_VIQ_1_ligand
   46    47     1     0     0
SMALL
NO_CHARGES


@<TRIPOS>ATOM
      1 O2          2.0350    7.5170   13.9440 O.2       1 VIQ1423     0.0000 
      2 S           3.2710    6.9440   13.5050 S.o2      1 VIQ1423     0.0000 
      3 O3          4.0000    8.0150   12.8710 O.2       1 VIQ1423     0.0000 
      4 N1          4.0420    6.3930   14.8700 N.pl3     1 VIQ1423     0.0000 
      5 C1          3.7010    5.2660   15.6010 C.2       1 VIQ1423     0.0000 
      6 C2          4.0920    3.8720   15.2430 C.2       1 VIQ1423     0.0000 
      7 C6          4.8770    3.3340   14.0770 C.3       1 VIQ1423     0.0000 
      8 N2          3.5010    3.1310   16.1930 N.pl3     1 VIQ1423     0.0000 
      9 C3          3.4770    1.6820   16.4800 C.3       1 VIQ1423     0.0000 
     10 N3          2.7910    3.9160   17.1170 N.2       1 VIQ1423     0.0000 
     11 C4          2.9210    5.2230   16.7720 C.2       1 VIQ1423     0.0000 
     12 C5          2.2620    6.3020   17.5730 C.3       1 VIQ1423     0.0000 
     13 C7          3.1900    5.7440   12.3760 C.ar      1 VIQ1423     0.0000 
     14 C8          4.2540    5.4620   11.4920 C.ar      1 VIQ1423     0.0000 
     15 C16         5.5420    6.2600   11.4900 C.3       1 VIQ1423     0.0000 
     16 C9          4.1880    4.4110   10.5600 C.ar      1 VIQ1423     0.0000 
     17 C10         5.3430    4.1430    9.6140 C.3       1 VIQ1423     0.0000 
     18 C11         3.0670    3.6010   10.4840 C.ar      1 VIQ1423     0.0000 
     19 O1          3.0320    2.5350    9.5820 O.3       1 VIQ1423     0.0000 
     20 C15         1.8450    1.7380    9.3980 C.3       1 VIQ1423     0.0000 
     21 C12         2.0260    3.8750   11.3630 C.ar      1 VIQ1423     0.0000 
     22 C13         2.0790    4.9270   12.2740 C.ar      1 VIQ1423     0.0000 
     23 C14         0.8910    5.1300   13.1760 C.3       1 VIQ1423     0.0000 
     24 H           4.8341    7.0179   15.1127 H         1 VIQ1423     0.0000 
     25 H           1.1739    3.2718   11.3406 H         1 VIQ1423     0.0000 
     26 H           5.8001    3.7170   14.0424 H         1 VIQ1423     0.0000 
     27 H           4.9737    2.3397   14.1215 H         1 VIQ1423     0.0000 
     28 H           4.4383    3.5471   13.2040 H         1 VIQ1423     0.0000 
     29 H           4.3938    1.3227   16.6543 H         1 VIQ1423     0.0000 
     30 H           2.9219    1.4720   17.2848 H         1 VIQ1423     0.0000 
     31 H           3.0972    1.1586   15.7173 H         1 VIQ1423     0.0000 
     32 H           2.9262    6.9615   17.9250 H         1 VIQ1423     0.0000 
     33 H           1.5988    6.8160   17.0290 H         1 VIQ1423     0.0000 
     34 H           1.7705    5.9318   18.3613 H         1 VIQ1423     0.0000 
     35 H           6.0069    6.2170   12.3743 H         1 VIQ1423     0.0000 
     36 H           6.1864    5.9233   10.8034 H         1 VIQ1423     0.0000 
     37 H           5.3798    7.2264   11.2908 H         1 VIQ1423     0.0000 
     38 H           6.1871    3.9347   10.1081 H         1 VIQ1423     0.0000 
     39 H           5.1571    3.3670    9.0113 H         1 VIQ1423     0.0000 
     40 H           5.5332    4.9304    9.0277 H         1 VIQ1423     0.0000 
     41 H           1.9825    1.0187    8.7171 H         1 VIQ1423     0.0000 
     42 H           1.5640    1.2889   10.2462 H         1 VIQ1423     0.0000 
     43 H           1.0710    2.2904    9.0886 H         1 VIQ1423     0.0000 
     44 H           1.1354    5.0290   14.1404 H         1 VIQ1423     0.0000 
     45 H           0.4942    6.0416   13.0681 H         1 VIQ1423     0.0000 
     46 H           0.1641    4.4697   12.9871 H         1 VIQ1423     0.0000 
@<TRIPOS>BOND
     1    2    1 2    
     2    3    2 2    
     3    4    2 1    
     4   13    2 1    
     5    5    4 1    
     6   24    4 1    
     7    6    5 2    
     8   11    5 1    
     9    7    6 1    
    10    8    6 1    
    11   26    7 1    
    12   27    7 1    
    13   28    7 1    
    14    9    8 1    
    15   10    8 1    
    16   29    9 1    
    17   30    9 1    
    18   31    9 1    
    19   11   10 2    
    20   12   11 1    
    21   32   12 1    
    22   33   12 1    
    23   34   12 1    
    24   14   13 ar   
    25   22   13 ar   
    26   15   14 1    
    27   16   14 ar   
    28   35   15 1    
    29   36   15 1    
    30   37   15 1    
    31   17   16 1    
    32   18   16 ar   
    33   38   17 1    
    34   39   17 1    
    35   40   17 1    
    36   19   18 1    
    37   21   18 ar   
    38   20   19 1    
    39   41   20 1    
    40   42   20 1    
    41   43   20 1    
    42   22   21 ar   
    43   25   21 1    
    44   23   22 1    
    45   44   23 1    
    46   45   23 1    
    47   46   23 1    
@<TRIPOS>SUBSTRUCTURE
     1 VIQ1423     1 GROUP   
@<TRIPOS>SET

