#    Name: 4anm_WUL_1_INTS_M
#    Modification time : Tue Mar 25 05:49:44 2014

@<TRIPOS>MOLECULE
4anm_WUL_1_INTS_M
   63     0    12     0     0
SMALL
NO_CHARGES


@<TRIPOS>ATOM
      1 CA         22.2700    0.8550   18.5305 C.3       4 GLC5        0.0000 
      2 CA         23.8270    2.1590   18.1400 C.3      12 GLL5        0.0000 
      3 CA         20.7130   -0.4490   18.9210 C.3       8 GLP5        0.0000 
      4 OD1        25.5495    3.5110   15.9930 O.co2     3 ASC3        0.0000 
      5 OD1        25.4080    3.6900   17.3710 O.co2    11 ASL3        0.0000 
      6 OD1        25.6910    3.3320   14.6150 O.co2     7 ASP3        0.0000 
      7 O          25.5495    3.5110   15.9930 O.2       1 ALC1        0.0000 
      8 O          25.4080    3.6900   17.3710 O.2       9 ALL1        0.0000 
      9 O          25.6910    3.3320   14.6150 O.2       5 ALP1        0.0000 
     10 O          22.8960    1.6205   16.1775 O.2       1 ALC1        0.0000 
     11 O          23.7550    1.0880   17.1040 O.2       9 ALL1        0.0000 
     12 O          22.0370    2.1530   15.2510 O.2       5 ALP1        0.0000 
     13 N          26.3310    7.3685   13.7785 N.am      2 SEC2        0.0000 
     14 N          25.1430    7.8340   14.2830 N.am     10 SEL2        0.0000 
     15 N          27.5190    6.9030   13.2740 N.am      6 SEP2        0.0000 
     16 O          25.5835    4.8835   15.3420 O.2       1 ALC1        0.0000 
     17 O          25.4760    6.4350   16.0690 O.2       9 ALL1        0.0000 
     18 CA         26.7795    6.3525   18.7275 C.3       4 GLC5        0.0000 
     19 CA         25.8770    5.0060   17.9320 C.3      12 GLL5        0.0000 
     20 CA         27.6820    7.6990   19.5230 C.3       8 GLP5        0.0000 
     21 CA         21.0200   12.2735   20.7785 C.3       4 GLC5        0.0000 
     22 CA         20.3350   10.4990   20.9780 C.3      12 GLL5        0.0000 
     23 CA         21.7050   14.0480   20.5790 C.3       8 GLP5        0.0000 
     24 CA         18.5165   11.2610   20.5450 C.3       4 GLC5        0.0000 
     25 CA         16.6980   12.0230   20.1120 C.3       8 GLP5        0.0000 
     26 CA         19.6820    8.7030   20.4870 C.3       4 GLC5        0.0000 
     27 CA         19.0290    6.9070   19.9960 C.3       8 GLP5        0.0000 
     28 CA         20.6390    8.0175   19.6530 C.3       4 GLC5        0.0000 
     29 CA         22.2490    9.1280   19.3100 C.3      12 GLL5        0.0000 
     30 CA         22.1215   11.8415   20.0500 C.3       4 GLC5        0.0000 
     31 CA         21.3610   10.2100   19.3180 C.3      12 GLL5        0.0000 
     32 CA         22.8820   13.4730   20.7820 C.3       8 GLP5        0.0000 
     33 CA         21.4305   12.5945   19.4745 C.3       4 GLC5        0.0000 
     34 CA         21.1560   11.1410   18.3700 C.3      12 GLL5        0.0000 
     35 CA         20.9445   11.5310   15.6220 C.3       4 GLC5        0.0000 
     36 CA         21.8680   10.9090   17.1740 C.3      12 GLL5        0.0000 
     37 CA         20.0210   12.1530   14.0700 C.3       8 GLP5        0.0000 
     38 CA         22.5590   12.5590   16.3100 C.3       4 GLC5        0.0000 
     39 CA         23.2500   14.2090   15.4460 C.3       8 GLP5        0.0000 
     40 CA         26.0920    8.5625   15.4660 C.3       4 GLC5        0.0000 
     41 CA         24.1020    8.3590   16.2650 C.3      12 GLL5        0.0000 
     42 CA         28.0820    8.7660   14.6670 C.3       8 GLP5        0.0000 
     43 CA         22.6715    7.1720   16.5685 C.3       4 GLC5        0.0000 
     44 CA         21.2410    5.9850   16.8720 C.3       8 GLP5        0.0000 
     45 CA         22.5965    4.7335   17.1610 C.3       4 GLC5        0.0000 
     46 CA         23.9520    3.4820   17.4500 C.3      12 GLL5        0.0000 
     47 CA         23.8880    3.8960   15.4700 C.3       4 GLC5        0.0000 
     48 CA         23.8240    4.3100   13.4900 C.3       8 GLP5        0.0000 
     49 CA         27.6210    1.6953   18.7233 C.3       4 GLC5        0.0000 
     50 CA         26.1770    2.5200   17.6740 C.3      12 GLL5        0.0000 
     51 CA         29.5510    1.1130   19.2130 C.3       8 GLP5        0.0000 
     52 CA         23.6145   10.7097   19.0567 C.3       4 GLC5        0.0000 
     53 CA         22.9430    8.9530   18.0930 C.3      12 GLL5        0.0000 
     54 CA         24.6330   12.3790   19.4120 C.3       8 GLP5        0.0000 
     55 CA         24.5423    9.2061   19.4831 C.3       4 GLC5        0.0000 
     56 CA         26.2700    9.6050   20.3930 C.3       8 GLP5        0.0000 
     57 CA         22.0277    7.3961   17.7226 C.3       4 GLC5        0.0000 
     58 CA         19.8027    9.2293   18.6845 C.3       4 GLC5        0.0000 
     59 CA         18.3470    7.7830   18.5250 C.3       8 GLP5        0.0000 
     60 CA         23.4565   11.3792   18.2690 C.3       4 GLC5        0.0000 
     61 CA         20.9180    9.4467   16.3150 C.3       4 GLC5        0.0000 
     62 CA         22.6920    9.8500   17.0780 C.3      12 GLL5        0.0000 
     63 CA         19.7340    8.4560   15.2050 C.3       8 GLP5        0.0000 
@<TRIPOS>BOND
@<TRIPOS>SUBSTRUCTURE
     1 ALC1        7 GROUP        1 X    ALC  0     ROOT ALC X 1
     2 SEC2       13 GROUP        1 X    SEC  0     **** SEC X 2
     3 ASC3        4 GROUP        1 X    ASC  0     **** ASC X 3
     4 GLC5        1 GROUP        1 X    GLC  0     **** GLC X 6
     5 ALP1        9 GROUP        1 Y    ALP  0     ROOT ALP Y 8
     6 SEP2       15 GROUP        1 Y    SEP  0     **** SEP Y 9
     7 ASP3        6 GROUP        1 Y    ASP  0     **** ASP Y 10
     8 GLP5        3 GROUP        1 Y    GLP  0     **** GLP Y 13
     9 ALL1        8 GROUP        1 Z    ALL  0     ROOT ALL Z 15
    10 SEL2       14 GROUP        1 Z    SEL  0     **** SEL Z 16
    11 ASL3        5 GROUP        1 Z    ASL  0     **** ASL Z 17
    12 GLL5        2 GROUP        1 Z    GLL  0     **** GLL Z 20
@<TRIPOS>SET

