#    Name: 4anm_WUL_1_ligand
#    Modification time : Tue Mar 25 05:49:44 2014

@<TRIPOS>MOLECULE
4anm_WUL_1_ligand
   37    40     1     0     0
SMALL
NO_CHARGES


@<TRIPOS>ATOM
      1 C14        23.8270    2.1590   18.1400 C.3       1 WUL1334     0.0000 
      2 N3         25.4080    3.6900   17.3710 N.4       1 WUL1334     0.0000 
      3 O3         23.7550    1.0880   17.1040 O.3       1 WUL1334     0.0000 
      4 C13        25.2050    2.0350   18.7930 C.3       1 WUL1334     0.0000 
      5 N1         24.3600    6.9000   18.0990 N.2       1 WUL1334     0.0000 
      6 O1         25.1430    7.8340   14.2830 O.2       1 WUL1334     0.0000 
      7 C12        26.1770    2.5200   17.6740 C.3       1 WUL1334     0.0000 
      8 N2         25.4760    6.4350   16.0690 N.am      1 WUL1334     0.0000 
      9 C5         25.8770    5.0060   17.9320 C.3       1 WUL1334     0.0000 
     10 C3         25.2120    6.1570   17.3720 C.2       1 WUL1334     0.0000 
     11 C2         23.8170    8.0200   17.5800 C.2       1 WUL1334     0.0000 
     12 C7         22.9430    8.9530   18.0930 C.ar      1 WUL1334     0.0000 
     13 BR1        20.3350   10.4990   20.9780 Br        1 WUL1334     0.0000 
     14 C11        22.2490    9.1280   19.3100 C.ar      1 WUL1334     0.0000 
     15 C10        21.3610   10.2100   19.3180 C.ar      1 WUL1334     0.0000 
     16 C9         21.1560   11.1410   18.3700 C.ar      1 WUL1334     0.0000 
     17 C8         21.8680   10.9090   17.1740 C.ar      1 WUL1334     0.0000 
     18 O2         23.4500    9.4480   15.9870 O.3       1 WUL1334     0.0000 
     19 C6         22.6920    9.8500   17.0780 C.ar      1 WUL1334     0.0000 
     20 C1         24.1020    8.3590   16.2650 C.2       1 WUL1334     0.0000 
     21 C4         24.9570    7.5630   15.5010 C.2       1 WUL1334     0.0000 
     22 C15        23.9520    3.4820   17.4500 C.3       1 WUL1334     0.0000 
     23 H          23.0969    2.1384   18.8235 H         1 WUL1334     0.0000 
     24 H          25.5753    3.8453   16.1877 H         1 WUL1334     0.0000 
     25 H          25.4138    1.0258   19.0168 H         1 WUL1334     0.0000 
     26 H          25.2780    2.6868   19.6188 H         1 WUL1334     0.0000 
     27 H          27.0874    2.7350   18.1163 H         1 WUL1334     0.0000 
     28 H          26.1631    1.8166   16.9153 H         1 WUL1334     0.0000 
     29 H          26.0670    5.7974   15.5069 H         1 WUL1334     0.0000 
     30 H          26.9787    5.0756   17.7733 H         1 WUL1334     0.0000 
     31 H          25.7422    4.9769   19.0387 H         1 WUL1334     0.0000 
     32 H          22.3826    8.5357   20.0842 H         1 WUL1334     0.0000 
     33 H          20.5648   11.9316   18.4688 H         1 WUL1334     0.0000 
     34 H          21.7365   11.5682   16.3905 H         1 WUL1334     0.0000 
     35 H          23.4920    4.2433   18.0422 H         1 WUL1334     0.0000 
     36 H          23.5242    3.4217   16.4726 H         1 WUL1334     0.0000 
     37 H          23.4409    1.5507   16.2750 H         1 WUL1334     0.0000 
@<TRIPOS>BOND
     1    3    1 1    
     2    4    1 1    
     3   22    1 1    
     4   23    1 1    
     5    7    2 1    
     6    9    2 1    
     7   22    2 1    
     8   24    2 1    
     9   37    3 1    
    10    7    4 1    
    11   25    4 1    
    12   26    4 1    
    13   10    5 2    
    14   11    5 1    
    15   21    6 2    
    16   27    7 1    
    17   28    7 1    
    18   10    8 1    
    19   21    8 am   
    20   29    8 1    
    21   10    9 1    
    22   30    9 1    
    23   31    9 1    
    24   12   11 1    
    25   20   11 2    
    26   14   12 ar   
    27   19   12 ar   
    28   15   13 1    
    29   15   14 ar   
    30   32   14 1    
    31   16   15 ar   
    32   17   16 ar   
    33   33   16 1    
    34   19   17 ar   
    35   34   17 1    
    36   19   18 1    
    37   20   18 1    
    38   21   20 1    
    39   35   22 1    
    40   36   22 1    
@<TRIPOS>SUBSTRUCTURE
     1 WUL1334     1 GROUP   
@<TRIPOS>SET

