#    Name: 1thy_UMP_1_INTS_M
#    Modification time : Tue Mar 25 05:01:59 2014

@<TRIPOS>MOLECULE
1thy_UMP_1_INTS_M
   37     0    12     0     0
SMALL
NO_CHARGES


@<TRIPOS>ATOM
      1 CA         13.0310   44.3335  -52.9755 C.3       4 GLC5        0.0000 
      2 CA         13.3040   45.8670  -51.5590 C.3      12 GLL5        0.0000 
      3 CA         12.7580   42.8000  -54.3920 C.3       8 GLP5        0.0000 
      4 N          11.9905   43.9390  -51.4665 N.am      2 SEC2        0.0000 
      5 N          13.4120   43.6230  -50.9120 N.am     10 SEL2        0.0000 
      6 N          10.5690   44.2550  -52.0210 N.am      6 SEP2        0.0000 
      7 N          14.1515   42.9110  -52.1700 N.am      2 SEC2        0.0000 
      8 N          14.8910   42.1990  -53.4280 N.am      6 SEP2        0.0000 
      9 O          16.8555   44.2810  -55.9530 O.2       1 ALC1        0.0000 
     10 O          16.7290   45.3250  -55.0430 O.2       9 ALL1        0.0000 
     11 O          16.9820   43.2370  -56.8630 O.2       5 ALP1        0.0000 
     12 CA         16.7860   50.6925  -55.7050 C.3       4 GLC5        0.0000 
     13 CA         17.6120   48.8050  -56.2480 C.3      12 GLL5        0.0000 
     14 CA         15.9600   52.5800  -55.1620 C.3       8 GLP5        0.0000 
     15 NZ         16.8525   49.5090  -60.8470 N.4       3 LYC4        0.0000 
     16 NZ         16.7870   49.4260  -59.1980 N.4      11 LYL4        0.0000 
     17 NZ         16.9180   49.5920  -62.4960 N.4       7 LYP4        0.0000 
     18 N          13.6125   48.8170  -58.2115 N.am      2 SEC2        0.0000 
     19 N          15.0790   48.1240  -58.1160 N.am     10 SEL2        0.0000 
     20 N          12.1460   49.5100  -58.3070 N.am      6 SEP2        0.0000 
     21 N          14.3605   46.9010  -57.7390 N.am      2 SEC2        0.0000 
     22 N          13.6420   45.6780  -57.3620 N.am      6 SEP2        0.0000 
     23 NZ         13.4920   50.0065  -58.3620 N.4       3 LYC4        0.0000 
     24 NZ         14.8380   50.5030  -58.4170 N.4      11 LYL4        0.0000 
     25 NZ         11.6040   50.5680  -57.7520 N.4       7 LYP4        0.0000 
     26 N          13.4920   50.0065  -58.3620 N.am      2 SEC2        0.0000 
     27 N          14.8380   50.5030  -58.4170 N.am     10 SEL2        0.0000 
     28 N          13.6310   50.9450  -57.7710 N.am      2 SEC2        0.0000 
     29 N          12.4240   51.3870  -57.1250 N.am      6 SEP2        0.0000 
     30 CA         13.1885   47.7095  -52.7978 C.3       4 GLC5        0.0000 
     31 CA         14.0300   46.8770  -52.1640 C.3      12 GLL5        0.0000 
     32 CA         12.7100   49.0470  -53.7340 C.3       8 GLP5        0.0000 
     33 CA         14.1160   48.2122  -53.9560 C.3       4 GLC5        0.0000 
     34 CA         15.8290   47.5330  -53.5180 C.3      12 GLL5        0.0000 
     35 CA         14.0715   46.5760  -56.3035 C.3       4 GLC5        0.0000 
     36 CA         15.2150   47.2220  -54.8380 C.3      12 GLL5        0.0000 
     37 CA         12.3310   46.2240  -57.4030 C.3       8 GLP5        0.0000 
@<TRIPOS>BOND
@<TRIPOS>SUBSTRUCTURE
     1 ALC1        9 GROUP        1 X    ALC  0     ROOT ALC X 1
     2 SEC2        4 GROUP        1 X    SEC  0     **** SEC X 2
     3 LYC4       15 GROUP        1 X    LYC  0     **** LYC X 4
     4 GLC5        1 GROUP        1 X    GLC  0     **** GLC X 6
     5 ALP1       11 GROUP        1 Y    ALP  0     ROOT ALP Y 8
     6 SEP2        6 GROUP        1 Y    SEP  0     **** SEP Y 9
     7 LYP4       17 GROUP        1 Y    LYP  0     **** LYP Y 11
     8 GLP5        3 GROUP        1 Y    GLP  0     **** GLP Y 13
     9 ALL1       10 GROUP        1 Z    ALL  0     ROOT ALL Z 15
    10 SEL2        5 GROUP        1 Z    SEL  0     **** SEL Z 16
    11 LYL4       16 GROUP        1 Z    LYL  0     **** LYL Z 18
    12 GLL5        2 GROUP        1 Z    GLL  0     **** GLL Z 20
@<TRIPOS>SET

