#    Name: 1thy_UMP_1_ligand
#    Modification time : Tue Mar 25 05:01:59 2014

@<TRIPOS>MOLECULE
1thy_UMP_1_ligand
   31    32     1     0     0
SMALL
NO_CHARGES


@<TRIPOS>ATOM
      1 N1         15.3100   46.7810  -52.3740 N.am      1 UMP317      0.0000 
      2 C2         16.0480   45.7200  -51.9040 C.2       1 UMP317      0.0000 
      3 N3         15.3260   44.7270  -51.2910 N.am      1 UMP317      0.0000 
      4 C4         13.9700   44.6960  -51.1020 C.2       1 UMP317      0.0000 
      5 C5         13.3040   45.8670  -51.5590 C.2       1 UMP317      0.0000 
      6 C6         14.0300   46.8770  -52.1640 C.2       1 UMP317      0.0000 
      7 O2         17.2820   45.6680  -51.9040 O.2       1 UMP317      0.0000 
      8 O4         13.4120   43.6230  -50.9120 O.2       1 UMP317      0.0000 
      9 C1'        15.8290   47.5330  -53.5180 C.3       1 UMP317      0.0000 
     10 C2'        15.2150   47.2220  -54.8380 C.3       1 UMP317      0.0000 
     11 C3'        16.4090   46.6340  -55.5700 C.3       1 UMP317      0.0000 
     12 C4'        17.4660   47.6820  -55.1500 C.3       1 UMP317      0.0000 
     13 O3'        16.7290   45.3250  -55.0430 O.3       1 UMP317      0.0000 
     14 O4'        17.0460   48.2550  -53.8450 O.3       1 UMP317      0.0000 
     15 C5'        17.6120   48.8050  -56.2480 C.3       1 UMP317      0.0000 
     16 O5'        16.4030   49.5260  -56.6930 O.3       1 UMP317      0.0000 
     17 P          15.7740   49.4150  -58.1510 P.3       1 UMP317      0.0000 
     18 OP1        16.7870   49.4260  -59.1980 O.co2     1 UMP317      0.0000 
     19 OP2        15.0790   48.1240  -58.1160 O.co2     1 UMP317      0.0000 
     20 OP3        14.8380   50.5030  -58.4170 O.co2     1 UMP317      0.0000 
     21 H          15.8880   43.8801  -50.9182 H         1 UMP317      0.0000 
     22 H          12.2924   45.9449  -51.4326 H         1 UMP317      0.0000 
     23 H          13.4928   47.7441  -52.4533 H         1 UMP317      0.0000 
     24 H          15.0612   48.6307  -53.3782 H         1 UMP317      0.0000 
     25 H          14.9018   48.1036  -55.3232 H         1 UMP317      0.0000 
     26 H          14.4645   46.4887  -54.7393 H         1 UMP317      0.0000 
     27 H          16.2593   46.6965  -56.5832 H         1 UMP317      0.0000 
     28 H          18.4115   47.1845  -55.0507 H         1 UMP317      0.0000 
     29 H          18.1231   48.3232  -57.1273 H         1 UMP317      0.0000 
     30 H          18.3766   49.5323  -55.8570 H         1 UMP317      0.0000 
     31 H          17.1374   44.8301  -55.8101 H         1 UMP317      0.0000 
@<TRIPOS>BOND
     1    2    1 1    
     2    6    1 1    
     3    9    1 1    
     4    3    2 1    
     5    7    2 2    
     6    4    3 1    
     7   21    3 1    
     8    5    4 1    
     9    8    4 2    
    10    6    5 2    
    11   22    5 1    
    12   23    6 1    
    13   10    9 1    
    14   14    9 1    
    15   24    9 1    
    16   11   10 1    
    17   25   10 1    
    18   26   10 1    
    19   12   11 1    
    20   13   11 1    
    21   27   11 1    
    22   14   12 1    
    23   15   12 1    
    24   28   12 1    
    25   31   13 1    
    26   16   15 1    
    27   29   15 1    
    28   30   15 1    
    29   17   16 1    
    30   18   17 ar   
    31   19   17 ar   
    32   20   17 ar   
@<TRIPOS>SUBSTRUCTURE
     1 UMP317      1 GROUP   
@<TRIPOS>SET

