#    Name: 3bys_AM5_1_INTS_M
#    Modification time : Mon Mar 24 20:13:48 2014

@<TRIPOS>MOLECULE
3bys_AM5_1_INTS_M
  106     0     9     0     0
SMALL
NO_CHARGES


@<TRIPOS>ATOM
      1 CA         13.7145   -1.4365   40.8305 C.3       3 GLC5        0.0000 
      2 CA         15.2730   -1.1080   41.7380 C.3       9 GLL5        0.0000 
      3 CA         12.1560   -1.7650   39.9230 C.3       6 GLP5        0.0000 
      4 CA         14.7240   -1.3265   39.6955 C.3       3 GLC5        0.0000 
      5 CA         16.1100   -0.3910   40.7610 C.3       9 GLL5        0.0000 
      6 CA         13.3380   -2.2620   38.6300 C.3       6 GLP5        0.0000 
      7 O          13.8855    1.1010   41.4015 O.2       1 ALC1        0.0000 
      8 O          14.3510    1.0020   40.0750 O.2       7 ALL1        0.0000 
      9 O          13.4200    1.2000   42.7280 O.2       4 ALP1        0.0000 
     10 CA         12.8380   -0.0285   39.5875 C.3       3 GLC5        0.0000 
     11 CA         13.5200    1.7080   39.2520 C.3       9 GLL5        0.0000 
     12 CA         11.7060    1.5170   41.3845 C.3       3 GLC5        0.0000 
     13 CA         12.3290    2.2830   39.8380 C.3       9 GLL5        0.0000 
     14 CA         11.0830    0.7510   42.9310 C.3       6 GLP5        0.0000 
     15 CA          9.3245    3.4400   39.4985 C.3       3 GLC5        0.0000 
     16 CA         11.3610    3.0710   39.0830 C.3       9 GLL5        0.0000 
     17 CA          7.2880    3.8090   39.9140 C.3       6 GLP5        0.0000 
     18 CA         13.5490   -0.1730   38.2425 C.3       3 GLC5        0.0000 
     19 CA         13.7600    1.9160   37.8550 C.3       9 GLL5        0.0000 
     20 CA         15.5585    2.4335   37.0895 C.3       3 GLC5        0.0000 
     21 CA         17.3570    2.9510   36.3240 C.3       6 GLP5        0.0000 
     22 CA         14.0965    5.5490   35.1875 C.3       3 GLC5        0.0000 
     23 CA         14.0050    3.7700   35.5280 C.3       9 GLL5        0.0000 
     24 CA         14.1880    7.3280   34.8470 C.3       6 GLP5        0.0000 
     25 CA         14.9590    4.4585   34.2070 C.3       3 GLC5        0.0000 
     26 CA         15.9130    5.1470   32.8860 C.3       6 GLP5        0.0000 
     27 CA         14.4385    4.5355   37.3535 C.3       3 GLC5        0.0000 
     28 CA         14.8720    5.3010   39.1790 C.3       6 GLP5        0.0000 
     29 CA         10.0275    2.7795   34.7195 C.3       3 GLC5        0.0000 
     30 CA         12.0700    3.2460   34.8320 C.3       9 GLL5        0.0000 
     31 CA          7.9850    2.3130   34.6070 C.3       6 GLP5        0.0000 
     32 CA         11.8890    4.4245   33.3035 C.3       3 GLC5        0.0000 
     33 CA         11.7080    5.6030   31.7750 C.3       6 GLP5        0.0000 
     34 CA         10.5810    4.6120   35.1485 C.3       3 GLC5        0.0000 
     35 CA          9.0920    5.9780   35.4650 C.3       6 GLP5        0.0000 
     36 CA         17.3195   -1.7055   38.8040 C.3       3 GLC5        0.0000 
     37 CA         17.5030   -0.5960   40.6450 C.3       9 GLL5        0.0000 
     38 CA         17.1360   -2.8150   36.9630 C.3       6 GLP5        0.0000 
     39 CA         19.4715   -4.3555   42.4430 C.3       3 GLC5        0.0000 
     40 CA         17.8590   -3.2860   43.3430 C.3       9 GLL5        0.0000 
     41 CA         21.0840   -5.4250   41.5430 C.3       6 GLP5        0.0000 
     42 CA         18.6225   -4.7655   44.5525 C.3       3 GLC5        0.0000 
     43 CA         19.3860   -6.2450   45.7620 C.3       6 GLP5        0.0000 
     44 N          23.4700   -4.2080   37.5440 N.am      2 SEC2        0.0000 
     45 N          22.9890   -3.2910   38.6360 N.am      8 SEL2        0.0000 
     46 N          23.9510   -5.1250   36.4520 N.am      5 SEP2        0.0000 
     47 CA         22.2755   -5.0505   38.3615 C.3       3 GLC5        0.0000 
     48 CA         21.6720   -3.1870   38.9830 C.3       9 GLL5        0.0000 
     49 CA         22.8790   -6.9140   37.7400 C.3       6 GLP5        0.0000 
     50 CA         23.9850   -2.6775   42.1375 C.3       3 GLC5        0.0000 
     51 CA         22.3000   -1.8680   40.9400 C.3       9 GLL5        0.0000 
     52 CA         25.6700   -3.4870   43.3350 C.3       6 GLP5        0.0000 
     53 CA         22.1990   -1.8765   43.0040 C.3       3 GLC5        0.0000 
     54 CA         22.0980   -1.8850   45.0680 C.3       6 GLP5        0.0000 
     55 CA         24.7995   -3.0925   41.3785 C.3       3 GLC5        0.0000 
     56 CA         23.9290   -2.6980   39.4220 C.3       9 GLL5        0.0000 
     57 CA         22.5065   -4.0615   40.4825 C.3       3 GLC5        0.0000 
     58 CA         23.8950   -1.0150   38.2515 C.3       3 GLC5        0.0000 
     59 CA         23.8610    0.6680   37.0810 C.3       6 GLP5        0.0000 
     60 O          19.0520   -3.6210   40.1160 O.2       1 ALC1        0.0000 
     61 O          19.9180   -2.4170   40.4800 O.2       7 ALL1        0.0000 
     62 O          18.1860   -4.8250   39.7520 O.2       4 ALP1        0.0000 
     63 O          25.8570   -3.2425   37.8825 O.2       1 ALC1        0.0000 
     64 O          25.2690   -2.8020   39.0330 O.2       7 ALL1        0.0000 
     65 O          26.4450   -3.6830   36.7320 O.2       4 ALP1        0.0000 
     66 CA         29.4395   -0.0320   38.7065 C.3       3 GLC5        0.0000 
     67 CA         30.8910   -0.2190   40.2410 C.3       9 GLL5        0.0000 
     68 CA         27.9880    0.1550   37.1720 C.3       6 GLP5        0.0000 
     69 N          16.5185    2.4615   38.6415 N.am      2 SEC2        0.0000 
     70 N          16.3190    1.0250   38.8360 N.am      8 SEL2        0.0000 
     71 N          16.7180    3.8980   38.4470 N.am      5 SEP2        0.0000 
     72 CA         14.3287   -2.8575   43.0213 C.3       3 GLC5        0.0000 
     73 CA         15.8440   -2.0780   42.6210 C.3       9 GLL5        0.0000 
     74 CA         13.0990   -4.1220   43.8630 C.3       6 GLP5        0.0000 
     75 CA         15.7117   -3.0780   41.2503 C.3       3 GLC5        0.0000 
     76 CA         15.8650   -4.5630   40.3210 C.3       6 GLP5        0.0000 
     77 CA         16.3358   -2.5282   40.5120 C.3       3 GLC5        0.0000 
     78 CA         13.8983    3.6482   39.3620 C.3       3 GLC5        0.0000 
     79 CA         11.3150    0.7665   39.1767 C.3       3 GLC5        0.0000 
     80 CA         10.7850   -1.1440   38.8930 C.3       6 GLP5        0.0000 
     81 CA         13.1758    4.2390   38.7828 C.3       3 GLC5        0.0000 
     82 CA         14.0730    3.8060   38.3233 C.3       3 GLC5        0.0000 
     83 CA         12.7880    2.7060   37.0800 C.3       9 GLL5        0.0000 
     84 CA         15.5046    2.9821   35.8929 C.3       3 GLC5        0.0000 
     85 CA         12.2989    2.0441   33.4284 C.3       3 GLC5        0.0000 
     86 CA         13.0720    2.8560   35.6060 C.3       9 GLL5        0.0000 
     87 CA         11.9130    1.3370   31.7430 C.3       6 GLP5        0.0000 
     88 CA         17.0391   -2.4826   44.7490 C.3       3 GLC5        0.0000 
     89 CA         16.8770   -2.2340   46.5520 C.3       6 GLP5        0.0000 
     90 CA         16.8071   -3.5801   41.4954 C.3       3 GLC5        0.0000 
     91 CA         21.4825   -3.8862   40.8993 C.3       3 GLC5        0.0000 
     92 CA         21.2520   -2.4670   40.1590 C.3       9 GLL5        0.0000 
     93 CA         21.7355   -1.3872   38.5808 C.3       3 GLC5        0.0000 
     94 CA         21.5900   -0.4270   36.9060 C.3       6 GLP5        0.0000 
     95 CA         27.9243   -0.0970   38.8417 C.3       3 GLC5        0.0000 
     96 CA         27.2200   -0.0210   40.5300 C.3       9 GLL5        0.0000 
     97 CA         28.3453   -2.2675   42.0893 C.3       3 GLC5        0.0000 
     98 CA         28.5010   -0.6770   40.4930 C.3       9 GLL5        0.0000 
     99 CA         28.0640   -3.1880   43.9380 C.3       6 GLP5        0.0000 
    100 CA         28.0932   -1.1133   38.4543 C.3       3 GLC5        0.0000 
    101 CA         28.7520   -2.0170   39.9880 C.3       9 GLL5        0.0000 
    102 CA         27.1172   -0.6393   38.4712 C.3       3 GLC5        0.0000 
    103 CA         26.3470   -2.1070   39.5120 C.3       9 GLL5        0.0000 
    104 CA         25.0538   -0.3828   38.4258 C.3       3 GLC5        0.0000 
    105 CA         26.1460   -0.7600   40.0290 C.3       9 GLL5        0.0000 
    106 CA         26.1205   -2.5401   41.5494 C.3       3 GLC5        0.0000 
@<TRIPOS>BOND
@<TRIPOS>SUBSTRUCTURE
     1 ALC1        7 GROUP        1 X    ALC  0     ROOT ALC X 1
     2 SEC2       44 GROUP        1 X    SEC  0     **** SEC X 2
     3 GLC5        1 GROUP        1 X    GLC  0     **** GLC X 6
     4 ALP1        9 GROUP        1 Y    ALP  0     ROOT ALP Y 8
     5 SEP2       46 GROUP        1 Y    SEP  0     **** SEP Y 9
     6 GLP5        3 GROUP        1 Y    GLP  0     **** GLP Y 13
     7 ALL1        8 GROUP        1 Z    ALL  0     ROOT ALL Z 15
     8 SEL2       45 GROUP        1 Z    SEL  0     **** SEL Z 16
     9 GLL5        2 GROUP        1 Z    GLL  0     **** GLL Z 20
@<TRIPOS>SET

