#    Name: 3bys_AM5_1_ligand
#    Modification time : Mon Mar 24 20:13:48 2014

@<TRIPOS>MOLECULE
3bys_AM5_1_ligand
   74    78     1     0     0
SMALL
NO_CHARGES


@<TRIPOS>ATOM
      1 C7         15.8440   -2.0780   42.6210 C.ar      1 AM51        0.0000 
      2 C9         15.2730   -1.1080   41.7380 C.ar      1 AM51        0.0000 
      3 C10        16.1100   -0.3910   40.7610 C.ar      1 AM51        0.0000 
      4 C11        15.6140    0.5960   39.7630 C.2       1 AM51        0.0000 
      5 N3         14.3510    1.0020   40.0750 N.am      1 AM51        0.0000 
      6 C14        13.5200    1.7080   39.2520 C.ar      1 AM51        0.0000 
      7 C15        12.3290    2.2830   39.8380 C.ar      1 AM51        0.0000 
      8 C19        11.3610    3.0710   39.0830 C.ar      1 AM51        0.0000 
      9 C18        11.5980    3.2830   37.6900 C.ar      1 AM51        0.0000 
     10 C17        12.7880    2.7060   37.0800 C.ar      1 AM51        0.0000 
     11 C16        13.7600    1.9160   37.8550 C.ar      1 AM51        0.0000 
     12 C20        13.0720    2.8560   35.6060 C.3       1 AM51        0.0000 
     13 F1         13.5270    1.6570   35.1850 F         1 AM51        0.0000 
     14 F3         14.0050    3.7700   35.5280 F         1 AM51        0.0000 
     15 F2         12.0700    3.2460   34.8320 F         1 AM51        0.0000 
     16 C12        17.5030   -0.5960   40.6450 C.ar      1 AM51        0.0000 
     17 C13        18.0360   -1.5420   41.5160 C.ar      1 AM51        0.0000 
     18 C21        17.2430   -2.2750   42.4770 C.ar      1 AM51        0.0000 
     19 C22        17.8590   -3.2860   43.3430 C.3       1 AM51        0.0000 
     20 N1         22.9890   -3.2910   38.6360 N.ar      1 AM51        0.0000 
     21 C23        21.6720   -3.1870   38.9830 C.ar      1 AM51        0.0000 
     22 C24        21.2520   -2.4670   40.1590 C.ar      1 AM51        0.0000 
     23 C25        22.3000   -1.8680   40.9400 C.ar      1 AM51        0.0000 
     24 N4         23.5710   -1.9970   40.5640 N.ar      1 AM51        0.0000 
     25 C26        23.9290   -2.6980   39.4220 C.ar      1 AM51        0.0000 
     26 N6         19.9180   -2.4170   40.4800 N.am      1 AM51        0.0000 
     27 C8         19.4110   -1.7140   41.4870 C.2       1 AM51        0.0000 
     28 O2         20.0610   -1.2060   42.3950 O.2       1 AM51        0.0000 
     29 N7         25.2690   -2.8020   39.0330 N.pl3     1 AM51        0.0000 
     30 C27        27.2200   -0.0210   40.5300 C.ar      1 AM51        0.0000 
     31 C28        28.5010   -0.6770   40.4930 C.ar      1 AM51        0.0000 
     32 C29        28.7520   -2.0170   39.9880 C.ar      1 AM51        0.0000 
     33 C30        27.6450   -2.7460   39.4850 C.ar      1 AM51        0.0000 
     34 C5         26.3470   -2.1070   39.5120 C.ar      1 AM51        0.0000 
     35 C31        26.1460   -0.7600   40.0290 C.ar      1 AM51        0.0000 
     36 C1         30.6470    0.6910   43.0410 C.3       1 AM51        0.0000 
     37 N2         31.9210    0.4930   42.3310 N.4       1 AM51        0.0000 
     38 C3         31.9460   -0.5240   41.2810 C.3       1 AM51        0.0000 
     39 C4         30.8910   -0.2190   40.2410 C.3       1 AM51        0.0000 
     40 N5         29.5880   -0.0570   40.9240 N.3       1 AM51        0.0000 
     41 C6         29.4890    0.8090   42.0850 C.3       1 AM51        0.0000 
     42 C2         32.8630   -0.0860   43.2830 C.3       1 AM51        0.0000 
     43 O1         16.3190    1.0250   38.8360 O.2       1 AM51        0.0000 
     44 H          15.3033   -2.5693   43.2774 H         1 AM51        0.0000 
     45 H          14.2812   -0.8985   41.7710 H         1 AM51        0.0000 
     46 H          13.9763    0.7461   41.0494 H         1 AM51        0.0000 
     47 H          12.1500    2.1303   40.8440 H         1 AM51        0.0000 
     48 H          10.5571    3.4470   39.5408 H         1 AM51        0.0000 
     49 H          10.9613    3.8198   37.1294 H         1 AM51        0.0000 
     50 H          14.5647    1.5405   37.3988 H         1 AM51        0.0000 
     51 H          18.0516   -0.0975   39.9881 H         1 AM51        0.0000 
     52 H          20.9304   -3.6261   38.4065 H         1 AM51        0.0000 
     53 H          22.0182   -1.3468   41.7853 H         1 AM51        0.0000 
     54 H          19.2532   -2.9917   39.8641 H         1 AM51        0.0000 
     55 H          25.4686   -3.5313   38.2491 H         1 AM51        0.0000 
     56 H          27.1282    0.8950   40.8913 H         1 AM51        0.0000 
     57 H          29.6735   -2.3937   40.0022 H         1 AM51        0.0000 
     58 H          27.7436   -3.6709   39.1211 H         1 AM51        0.0000 
     59 H          25.1997   -0.3753   40.0135 H         1 AM51        0.0000 
     60 H          30.6932    1.6032   43.6561 H         1 AM51        0.0000 
     61 H          30.4583   -0.1519   43.7240 H         1 AM51        0.0000 
     62 H          32.3296    1.4076   41.9755 H         1 AM51        0.0000 
     63 H          31.7491   -1.5161   41.6989 H         1 AM51        0.0000 
     64 H          32.9240   -0.5494   40.7905 H         1 AM51        0.0000 
     65 H          30.8462   -1.0389   39.5294 H         1 AM51        0.0000 
     66 H          31.1608    0.6947   39.7186 H         1 AM51        0.0000 
     67 H          29.4080    1.8736   41.7675 H         1 AM51        0.0000 
     68 H          28.5514    0.5960   42.6474 H         1 AM51        0.0000 
     69 H          18.8423   -3.3658   43.1795 H         1 AM51        0.0000 
     70 H          17.7397   -3.0679   44.3116 H         1 AM51        0.0000 
     71 H          17.4629   -4.1923   43.1957 H         1 AM51        0.0000 
     72 H          33.7584   -0.2476   42.8680 H         1 AM51        0.0000 
     73 H          33.0089    0.5117   44.0714 H         1 AM51        0.0000 
     74 H          32.5411   -0.9643   43.6366 H         1 AM51        0.0000 
@<TRIPOS>BOND
     1    2    1 ar   
     2   18    1 ar   
     3   44    1 1    
     4    3    2 ar   
     5   45    2 1    
     6    4    3 1    
     7   16    3 ar   
     8    5    4 am   
     9   43    4 2    
    10    6    5 1    
    11   46    5 1    
    12    7    6 ar   
    13   11    6 ar   
    14    8    7 ar   
    15   47    7 1    
    16    9    8 ar   
    17   48    8 1    
    18   10    9 ar   
    19   49    9 1    
    20   11   10 ar   
    21   12   10 1    
    22   50   11 1    
    23   13   12 1    
    24   14   12 1    
    25   15   12 1    
    26   17   16 ar   
    27   51   16 1    
    28   18   17 ar   
    29   27   17 1    
    30   19   18 1    
    31   69   19 1    
    32   70   19 1    
    33   71   19 1    
    34   21   20 ar   
    35   25   20 ar   
    36   22   21 ar   
    37   52   21 1    
    38   23   22 ar   
    39   26   22 1    
    40   24   23 ar   
    41   53   23 1    
    42   25   24 ar   
    43   29   25 1    
    44   27   26 am   
    45   54   26 1    
    46   28   27 2    
    47   34   29 1    
    48   55   29 1    
    49   31   30 ar   
    50   35   30 ar   
    51   56   30 1    
    52   32   31 ar   
    53   40   31 1    
    54   33   32 ar   
    55   57   32 1    
    56   34   33 ar   
    57   58   33 1    
    58   35   34 ar   
    59   59   35 1    
    60   37   36 1    
    61   41   36 1    
    62   60   36 1    
    63   61   36 1    
    64   38   37 1    
    65   42   37 1    
    66   62   37 1    
    67   39   38 1    
    68   63   38 1    
    69   64   38 1    
    70   40   39 1    
    71   65   39 1    
    72   66   39 1    
    73   41   40 1    
    74   67   41 1    
    75   68   41 1    
    76   72   42 1    
    77   73   42 1    
    78   74   42 1    
@<TRIPOS>SUBSTRUCTURE
     1 AM51        1 GROUP   
@<TRIPOS>SET

