#    Name: 3rhl_NAP_3_INTS_M
#    Modification time : Mon Apr  7 20:20:33 2014

@<TRIPOS>MOLECULE
3rhl_NAP_3_INTS_M
  112     0    12     0     0
SMALL
NO_CHARGES


@<TRIPOS>ATOM
      1 N          84.7810   16.3430   71.1320 N.am      2 SEC2        0.0000 
      2 N          85.4960   17.5670   71.2860 N.am     10 SEL2        0.0000 
      3 N          84.0660   15.1190   70.9780 N.am      6 SEP2        0.0000 
      4 N          84.4710   17.3760   72.1585 N.am      2 SEC2        0.0000 
      5 N          83.4460   17.1850   73.0310 N.am      6 SEP2        0.0000 
      6 CA         88.7030   15.4280   68.9310 C.3       4 GLC5        0.0000 
      7 CA         87.7190   17.3430   69.1210 C.3      12 GLL5        0.0000 
      8 CA         89.6870   13.5130   68.7410 C.3       8 GLP5        0.0000 
      9 CA         86.4470   15.9400   69.0160 C.3       4 GLC5        0.0000 
     10 CA         85.1750   14.5370   68.9110 C.3       8 GLP5        0.0000 
     11 N          91.4225   20.2150   67.0455 N.am      2 SEC2        0.0000 
     12 N          90.4710   19.0990   67.3120 N.am     10 SEL2        0.0000 
     13 N          92.3740   21.3310   66.7790 N.am      6 SEP2        0.0000 
     14 O          90.6505   17.8255   66.7840 O.2       1 ALC1        0.0000 
     15 O          90.4710   19.0990   67.3120 O.2       9 ALL1        0.0000 
     16 O          90.8300   16.5520   66.2560 O.2       5 ALP1        0.0000 
     17 N          91.3625   21.2550   67.9495 N.am      2 SEC2        0.0000 
     18 N          90.3510   21.1790   69.1200 N.am     10 SEL2        0.0000 
     19 CA         87.9455   20.2200   66.4830 C.3       4 GLC5        0.0000 
     20 CA         88.1210   20.6650   68.2400 C.3      12 GLL5        0.0000 
     21 CA         87.7700   19.7750   64.7260 C.3       8 GLP5        0.0000 
     22 CA         86.3985   19.5540   67.4680 C.3       4 GLC5        0.0000 
     23 CA         84.6760   18.4430   66.6960 C.3       8 GLP5        0.0000 
     24 CA         86.0405   20.6790   68.9570 C.3       4 GLC5        0.0000 
     25 CA         83.9600   20.6930   69.6740 C.3       8 GLP5        0.0000 
     26 CA         86.8300   26.0560   68.9220 C.3       4 GLC5        0.0000 
     27 CA         85.2900   24.6540   68.2870 C.3      12 GLL5        0.0000 
     28 CA         88.3700   27.4580   69.5570 C.3       8 GLP5        0.0000 
     29 CA         83.3215   25.2630   68.5865 C.3       4 GLC5        0.0000 
     30 CA         81.3530   25.8720   68.8860 C.3       8 GLP5        0.0000 
     31 O          84.0955   26.9265   68.3155 O.2       1 ALC1        0.0000 
     32 O          84.7440   25.5900   69.0630 O.2       9 ALL1        0.0000 
     33 O          83.4470   28.2630   67.5680 O.2       5 ALP1        0.0000 
     34 CA         87.6375   23.9590   67.0985 C.3       4 GLC5        0.0000 
     35 CA         85.6440   23.7280   66.1180 C.3      12 GLL5        0.0000 
     36 CA         89.6310   24.1900   68.0790 C.3       8 GLP5        0.0000 
     37 CA         86.9485   24.2975   65.1310 C.3       4 GLC5        0.0000 
     38 CA         88.2530   24.8670   64.1440 C.3       8 GLP5        0.0000 
     39 CA         85.7300   25.7160   65.4990 C.3       4 GLC5        0.0000 
     40 CA         85.8160   27.7040   64.8800 C.3       8 GLP5        0.0000 
     41 CA         84.4700   22.8060   65.2255 C.3       4 GLC5        0.0000 
     42 CA         83.2960   21.8840   64.3330 C.3       8 GLP5        0.0000 
     43 N          85.6600   15.5360   71.4290 N.am      2 SEC2        0.0000 
     44 N          87.2540   15.9530   71.8800 N.am     10 SEL2        0.0000 
     45 N          90.6425   15.2735   72.9370 N.am      2 SEC2        0.0000 
     46 N          89.4650   15.9790   73.0210 N.am     10 SEL2        0.0000 
     47 N          91.8200   14.5680   72.8530 N.am      6 SEP2        0.0000 
     48 CA         88.7435   13.0805   70.7360 C.3       4 GLC5        0.0000 
     49 CA         87.8000   12.6480   72.7310 C.3      12 GLL5        0.0000 
     50 CA         89.7260   12.6460   73.6025 C.3       4 GLC5        0.0000 
     51 CA         91.6520   12.6440   74.4740 C.3       8 GLP5        0.0000 
     52 CA         88.7440   11.0750   73.0235 C.3       4 GLC5        0.0000 
     53 CA         89.6880    9.5020   73.3160 C.3       8 GLP5        0.0000 
     54 CA         85.7520   13.5470   70.6175 C.3       4 GLC5        0.0000 
     55 CA         86.3290   12.5570   72.3240 C.3      12 GLL5        0.0000 
     56 CA         86.5960    9.6570   73.6020 C.3       4 GLC5        0.0000 
     57 CA         85.6290   11.4070   73.0410 C.3      12 GLL5        0.0000 
     58 CA         87.5630    7.9070   74.1630 C.3       8 GLP5        0.0000 
     59 O          83.7540   10.9515   74.3290 O.2       1 ALC1        0.0000 
     60 O          84.3210   11.7820   73.3940 O.2       9 ALL1        0.0000 
     61 O          83.1870   10.1210   75.2640 O.2       5 ALP1        0.0000 
     62 CA         83.3475   10.1935   72.0845 C.3       4 GLC5        0.0000 
     63 CA         85.5580   10.3350   71.9660 C.3      12 GLL5        0.0000 
     64 CA         81.1370   10.0520   72.2030 C.3       8 GLP5        0.0000 
     65 CA         85.3195    8.5155   70.8565 C.3       4 GLC5        0.0000 
     66 CA         85.0810    6.6960   69.7470 C.3       8 GLP5        0.0000 
     67 CA         86.7605    9.1250   72.3840 C.3       4 GLC5        0.0000 
     68 CA         87.9630    7.9150   72.8020 C.3       8 GLP5        0.0000 
     69 O          83.8580    9.7585   73.7025 O.2       1 ALC1        0.0000 
     70 O          84.5290    9.3960   72.1410 O.2       9 ALL1        0.0000 
     71 O          84.1680    8.8115   73.2390 O.2       1 ALC1        0.0000 
     72 O          83.8070    8.2270   74.3370 O.2       5 ALP1        0.0000 
     73 CA         85.2820   12.8535   69.8065 C.3       4 GLC5        0.0000 
     74 CA         85.3890   11.1700   70.7020 C.3      12 GLL5        0.0000 
     75 CA         82.7940   10.8460   68.7380 C.3       4 GLC5        0.0000 
     76 CA         84.8160    9.9410   68.6860 C.3      12 GLL5        0.0000 
     77 CA         80.7720   11.7510   68.7900 C.3       8 GLP5        0.0000 
     78 O          82.2610    9.1380   68.2840 O.2       1 ALC1        0.0000 
     79 O          82.8330    8.6330   67.0540 O.2       9 ALL1        0.0000 
     80 O          81.6890    9.6430   69.5140 O.2       5 ALP1        0.0000 
     81 NZ         92.5460   20.8870   68.2010 N.4       3 LYC4        0.0000 
     82 NZ         92.7180   20.4430   69.6230 N.4      11 LYL4        0.0000 
     83 NZ         92.3740   21.3310   66.7790 N.4       7 LYP4        0.0000 
     84 N          93.9120   20.0980   69.0540 N.am      2 SEC2        0.0000 
     85 N          92.7180   20.4430   69.6230 N.am     10 SEL2        0.0000 
     86 N          95.1060   19.7530   68.4850 N.am      6 SEP2        0.0000 
     87 N          91.4365   23.3920   69.5905 N.am      2 SEC2        0.0000 
     88 N          91.8640   22.5270   70.6360 N.am     10 SEL2        0.0000 
     89 N          91.0090   24.2570   68.5450 N.am      6 SEP2        0.0000 
     90 CA         86.3328   18.1475   67.6555 C.3       4 GLC5        0.0000 
     91 CA         88.2600   18.3610   68.1090 C.3      12 GLL5        0.0000 
     92 CA         88.3618   19.2067   66.5065 C.3       4 GLC5        0.0000 
     93 CA         89.1705   22.3223   68.3762 C.3       4 GLC5        0.0000 
     94 CA         87.8946   23.8025   68.1772 C.3       4 GLC5        0.0000 
     95 CA         86.0750   23.6420   68.8330 C.3      12 GLL5        0.0000 
     96 CA         85.0591   22.0540   68.9748 C.3       4 GLC5        0.0000 
     97 CA         86.6340   22.6820   67.9910 C.3      12 GLL5        0.0000 
     98 CA         84.5365   13.4780   72.3727 C.3       4 GLC5        0.0000 
     99 CA         83.0940   14.9740   72.0630 C.3       8 GLP5        0.0000 
    100 CA         85.5300   10.5608   66.8688 C.3       4 GLC5        0.0000 
    101 CA         86.0640   11.5600   65.6060 C.3       8 GLP5        0.0000 
    102 CA         85.0385    8.1288   68.9393 C.3       4 GLC5        0.0000 
    103 CA         85.1760    9.1820   67.5770 C.3      12 GLL5        0.0000 
    104 CA         88.0070    8.9410   66.0755 C.3       4 GLC5        0.0000 
    105 CA         86.5170    8.8890   67.3060 C.3      12 GLL5        0.0000 
    106 CA         89.0020    8.7590   64.4170 C.3       8 GLP5        0.0000 
    107 CA         88.2502   11.1310   68.2130 C.3       4 GLC5        0.0000 
    108 CA         87.5070    9.3570   68.1620 C.3      12 GLL5        0.0000 
    109 CA         89.1830   12.5330   67.7050 C.3       8 GLP5        0.0000 
    110 CA         86.5670   10.5860   67.0565 C.3       4 GLC5        0.0000 
    111 CA         87.1280   10.1010   69.2800 C.3      12 GLL5        0.0000 
    112 CA         86.0755    8.1540   69.1270 C.3       4 GLC5        0.0000 
@<TRIPOS>BOND
@<TRIPOS>SUBSTRUCTURE
     1 ALC1       14 GROUP        1 X    ALC  0     ROOT ALC X 1
     2 SEC2        1 GROUP        1 X    SEC  0     **** SEC X 2
     3 LYC4       81 GROUP        1 X    LYC  0     **** LYC X 4
     4 GLC5        6 GROUP        1 X    GLC  0     **** GLC X 6
     5 ALP1       16 GROUP        1 Y    ALP  0     ROOT ALP Y 8
     6 SEP2        3 GROUP        1 Y    SEP  0     **** SEP Y 9
     7 LYP4       83 GROUP        1 Y    LYP  0     **** LYP Y 11
     8 GLP5        8 GROUP        1 Y    GLP  0     **** GLP Y 13
     9 ALL1       15 GROUP        1 Z    ALL  0     ROOT ALL Z 15
    10 SEL2        2 GROUP        1 Z    SEL  0     **** SEL Z 16
    11 LYL4       82 GROUP        1 Z    LYL  0     **** LYL Z 18
    12 GLL5        7 GROUP        1 Z    GLL  0     **** GLL Z 20
@<TRIPOS>SET

