#    Name: 3rhl_NAP_3_ligand
#    Modification time : Mon Apr  7 20:20:33 2014

@<TRIPOS>MOLECULE
3rhl_NAP_3_ligand
   73    77     1     0     0
SMALL
NO_CHARGES


@<TRIPOS>ATOM
      1 PA         86.9200   17.4980   71.6550 P.3       1 NAP903      0.0000 
      2 O1A        85.4960   17.5670   71.2860 O.co2     1 NAP903      0.0000 
      3 O2A        87.3070   18.3100   72.8260 O.co2     1 NAP903      0.0000 
      4 O5B        87.8170   17.9260   70.3990 O.3       1 NAP903      0.0000 
      5 C5B        87.7190   17.3430   69.1210 C.3       1 NAP903      0.0000 
      6 C4B        88.2600   18.3610   68.1090 C.3       1 NAP903      0.0000 
      7 O4B        87.3760   19.4730   68.0840 O.3       1 NAP903      0.0000 
      8 C3B        89.6470   18.9160   68.4650 C.3       1 NAP903      0.0000 
      9 O3B        90.4710   19.0990   67.3120 O.3       1 NAP903      0.0000 
     10 C2B        89.2990   20.2440   69.1070 C.3       1 NAP903      0.0000 
     11 O2B        90.3510   21.1790   69.1200 O.3       1 NAP903      0.0000 
     12 C1B        88.1210   20.6650   68.2400 C.3       1 NAP903      0.0000 
     13 N9A        87.3560   21.8160   68.7710 N.pl3     1 NAP903      0.0000 
     14 C8A        87.2340   22.2450   70.0820 C.2       1 NAP903      0.0000 
     15 N7A        86.4560   23.3560   70.1050 N.2       1 NAP903      0.0000 
     16 C5A        86.0750   23.6420   68.8330 C.ar      1 NAP903      0.0000 
     17 C6A        85.2900   24.6540   68.2870 C.ar      1 NAP903      0.0000 
     18 N6A        84.7440   25.5900   69.0630 N.pl3     1 NAP903      0.0000 
     19 N1A        85.0750   24.6830   66.9240 N.ar      1 NAP903      0.0000 
     20 C2A        85.6440   23.7280   66.1180 C.ar      1 NAP903      0.0000 
     21 N3A        86.4280   22.7260   66.6550 N.ar      1 NAP903      0.0000 
     22 C4A        86.6340   22.6820   67.9910 C.ar      1 NAP903      0.0000 
     23 O3         87.2540   15.9530   71.8800 O.3       1 NAP903      0.0000 
     24 PN         88.1980   15.2360   72.9570 P.3       1 NAP903      0.0000 
     25 O1N        87.3850   15.0590   74.1990 O.co2     1 NAP903      0.0000 
     26 O2N        89.4650   15.9790   73.0210 O.co2     1 NAP903      0.0000 
     27 O5D        88.4030   13.8180   72.2140 O.3       1 NAP903      0.0000 
     28 C5D        87.8000   12.6480   72.7310 C.3       1 NAP903      0.0000 
     29 C4D        86.3290   12.5570   72.3240 C.3       1 NAP903      0.0000 
     30 O4D        86.2320   12.2850   70.9320 O.3       1 NAP903      0.0000 
     31 C3D        85.6290   11.4070   73.0410 C.3       1 NAP903      0.0000 
     32 O3D        84.3210   11.7820   73.3940 O.3       1 NAP903      0.0000 
     33 C2D        85.5580   10.3350   71.9660 C.3       1 NAP903      0.0000 
     34 O2D        84.5290    9.3960   72.1410 O.3       1 NAP903      0.0000 
     35 C1D        85.3890   11.1700   70.7020 C.3       1 NAP903      0.0000 
     36 N1N        85.8020   10.3940   69.5200 N.pl3     1 NAP903      0.0000 
     37 C2N        84.8160    9.9410   68.6860 C.ar      1 NAP903      0.0000 
     38 C3N        85.1760    9.1820   67.5770 C.ar      1 NAP903      0.0000 
     39 C7N        84.1110    8.6270   66.6910 C.2       1 NAP903      0.0000 
     40 O7N        84.5120    8.1230   65.4610 O.2       1 NAP903      0.0000 
     41 N7N        82.8330    8.6330   67.0540 N.am      1 NAP903      0.0000 
     42 C4N        86.5170    8.8890   67.3060 C.ar      1 NAP903      0.0000 
     43 C5N        87.5070    9.3570   68.1620 C.ar      1 NAP903      0.0000 
     44 C6N        87.1280   10.1010   69.2800 C.ar      1 NAP903      0.0000 
     45 P2B        91.5210   21.1140   70.2360 P.3       1 NAP903      0.0000 
     46 O1X        91.0450   20.3410   71.4410 O.co2     1 NAP903      0.0000 
     47 O2X        92.7180   20.4430   69.6230 O.co2     1 NAP903      0.0000 
     48 O3X        91.8640   22.5270   70.6360 O.co2     1 NAP903      0.0000 
     49 H          86.6912   17.1178   68.8412 H         1 NAP903      0.0000 
     50 H          88.3171   16.4381   69.0266 H         1 NAP903      0.0000 
     51 H          88.3146   17.8991   67.1415 H         1 NAP903      0.0000 
     52 H          90.0683   18.2886   69.2075 H         1 NAP903      0.0000 
     53 H          88.8927   20.0204   70.0842 H         1 NAP903      0.0000 
     54 H          88.5620   20.9370   67.2592 H         1 NAP903      0.0000 
     55 H          87.6393   21.8159   70.8381 H         1 NAP903      0.0000 
     56 H          84.9565   25.5318   70.0384 H         1 NAP903      0.0000 
     57 H          84.1710   26.2662   68.5999 H         1 NAP903      0.0000 
     58 H          85.4850   23.7565   65.0925 H         1 NAP903      0.0000 
     59 H          87.8389   12.6165   73.8339 H         1 NAP903      0.0000 
     60 H          88.2989   11.7321   72.3689 H         1 NAP903      0.0000 
     61 H          85.8349   13.4686   72.5806 H         1 NAP903      0.0000 
     62 H          86.2269   11.0710   73.8219 H         1 NAP903      0.0000 
     63 H          86.5480    9.8905   71.9033 H         1 NAP903      0.0000 
     64 H          84.3659   11.4592   70.6431 H         1 NAP903      0.0000 
     65 H          83.8312   10.1506   68.8653 H         1 NAP903      0.0000 
     66 H          82.6329    9.0216   67.9534 H         1 NAP903      0.0000 
     67 H          82.1866    8.2484   66.3950 H         1 NAP903      0.0000 
     68 H          86.7630    8.3336   66.4821 H         1 NAP903      0.0000 
     69 H          88.4895    9.1623   67.9792 H         1 NAP903      0.0000 
     70 H          87.8583   10.4346   69.9346 H         1 NAP903      0.0000 
     71 H          90.9742   18.2403   67.2147 H         1 NAP903      0.0000 
     72 H          84.0158   11.0808   74.0383 H         1 NAP903      0.0000 
     73 H          84.5596    9.1566   73.1114 H         1 NAP903      0.0000 
@<TRIPOS>BOND
     1    2    1 ar   
     2    3    1 ar   
     3    4    1 1    
     4   23    1 1    
     5    5    4 1    
     6    6    5 1    
     7   49    5 1    
     8   50    5 1    
     9    7    6 1    
    10    8    6 1    
    11   51    6 1    
    12   12    7 1    
    13    9    8 1    
    14   10    8 1    
    15   52    8 1    
    16   71    9 1    
    17   11   10 1    
    18   12   10 1    
    19   53   10 1    
    20   45   11 1    
    21   13   12 1    
    22   54   12 1    
    23   14   13 1    
    24   22   13 1    
    25   15   14 2    
    26   55   14 1    
    27   16   15 1    
    28   17   16 ar   
    29   22   16 ar   
    30   18   17 1    
    31   19   17 ar   
    32   56   18 1    
    33   57   18 1    
    34   20   19 ar   
    35   21   20 ar   
    36   58   20 1    
    37   22   21 ar   
    38   24   23 1    
    39   25   24 ar   
    40   26   24 ar   
    41   27   24 1    
    42   28   27 1    
    43   29   28 1    
    44   59   28 1    
    45   60   28 1    
    46   30   29 1    
    47   31   29 1    
    48   61   29 1    
    49   35   30 1    
    50   32   31 1    
    51   33   31 1    
    52   62   31 1    
    53   72   32 1    
    54   34   33 1    
    55   35   33 1    
    56   63   33 1    
    57   73   34 1    
    58   36   35 1    
    59   64   35 1    
    60   37   36 ar   
    61   44   36 ar   
    62   38   37 ar   
    63   65   37 1    
    64   39   38 1    
    65   42   38 ar   
    66   40   39 2    
    67   41   39 am   
    68   66   41 1    
    69   67   41 1    
    70   43   42 ar   
    71   68   42 1    
    72   44   43 ar   
    73   69   43 1    
    74   70   44 1    
    75   46   45 ar   
    76   47   45 ar   
    77   48   45 ar   
@<TRIPOS>SUBSTRUCTURE
     1 NAP903      1 GROUP   
@<TRIPOS>SET

