#    Name: 1r6b_ADP_1_INTS_M
#    Modification time : Tue Mar 25 00:25:04 2014

@<TRIPOS>MOLECULE
1r6b_ADP_1_INTS_M
   66     0    15     0     0
SMALL
NO_CHARGES


@<TRIPOS>ATOM
      1 Zn        131.5380   27.0175   16.6075 Zn        4 ZIC7        0.0000 
      2 Zn        132.0340   27.6510   17.4660 Zn       14 ZIL7        0.0000 
      3 Zn        131.0420   26.3840   15.7490 Zn        9 ZIP7        0.0000 
      4 N         133.4130   27.8350   17.1325 N.am      2 SEC2        0.0000 
      5 N         132.0340   27.6510   17.4660 N.am     12 SEL2        0.0000 
      6 N         134.7920   28.0190   16.7990 N.am      7 SEP2        0.0000 
      7 NZ        131.7665   27.2190   20.5530 N.4       3 LYC4        0.0000 
      8 NZ        131.8750   28.3440   19.8280 N.4      13 LYL4        0.0000 
      9 NZ        131.6580   26.0940   21.2780 N.4       8 LYP4        0.0000 
     10 N         132.0640   29.7920   20.0040 N.am      2 SEC2        0.0000 
     11 N         131.8750   28.3440   19.8280 N.am     12 SEL2        0.0000 
     12 N         132.2530   31.2400   20.1800 N.am      7 SEP2        0.0000 
     13 N         133.0565   28.8570   19.5735 N.am      2 SEC2        0.0000 
     14 N         134.2380   29.3700   19.3190 N.am      7 SEP2        0.0000 
     15 N         131.7665   27.2190   20.5530 N.am      2 SEC2        0.0000 
     16 N         131.6580   26.0940   21.2780 N.am      7 SEP2        0.0000 
     17 NZ        130.7635   26.7805   19.9445 N.4       3 LYC4        0.0000 
     18 NZ        129.8690   27.4670   18.6110 N.4      13 LYL4        0.0000 
     19 N         129.0340   28.2450   19.5645 N.am      2 SEC2        0.0000 
     20 N         129.8690   27.4670   18.6110 N.am     12 SEL2        0.0000 
     21 N         128.1990   29.0230   20.5180 N.am      7 SEP2        0.0000 
     22 N         130.7635   26.7805   19.9445 N.am      2 SEC2        0.0000 
     23 N         133.9655   30.2910   15.8815 N.am      2 SEC2        0.0000 
     24 N         132.6640   30.2660   16.3910 N.am     12 SEL2        0.0000 
     25 N         135.2670   30.3160   15.3720 N.am      7 SEP2        0.0000 
     26 N         131.5355   30.4925   19.1090 N.am      2 SEC2        0.0000 
     27 N         130.8180   29.7450   18.0380 N.am     12 SEL2        0.0000 
     28 CA        128.6495   31.2535   18.4915 C.3       5 GLC5        0.0000 
     29 CA        129.3350   32.0970   16.7960 C.3      15 GLL5        0.0000 
     30 CA        127.9640   30.4100   20.1870 C.3      10 GLP5        0.0000 
     31 CA        128.7950   35.5140   15.9995 C.3       5 GLC5        0.0000 
     32 CA        129.0760   33.2900   15.8740 C.3      15 GLL5        0.0000 
     33 CA        128.5140   37.7380   16.1250 C.3      10 GLP5        0.0000 
     34 CA        132.9970   33.2755   15.1615 C.3       5 GLC5        0.0000 
     35 CA        131.0380   33.7750   14.6530 C.3      15 GLL5        0.0000 
     36 CA        134.9560   32.7760   15.6700 C.3      10 GLP5        0.0000 
     37 CA        129.6260   36.3245   15.8800 C.3       5 GLC5        0.0000 
     38 CA        130.7380   34.9110   15.6350 C.3      15 GLL5        0.0000 
     39 O         136.4550   38.3045   18.7210 O.2       1 ALC1        0.0000 
     40 O         135.4830   37.2110   18.4530 O.2      11 ALL1        0.0000 
     41 O         137.4270   39.3980   18.9890 O.2       6 ALP1        0.0000 
     42 N         136.0005   38.7950   16.2670 N.am      2 SEC2        0.0000 
     43 N         134.6590   38.1130   16.4240 N.am     12 SEL2        0.0000 
     44 N         137.3420   39.4770   16.1100 N.am      7 SEP2        0.0000 
     45 CA        135.7675   37.9475   14.9505 C.3       5 GLC5        0.0000 
     46 CA        133.7090   38.1220   15.4450 C.3      15 GLL5        0.0000 
     47 CA        137.8260   37.7730   14.4560 C.3      10 GLP5        0.0000 
     48 CA        134.4265   39.8680   15.1105 C.3       5 GLC5        0.0000 
     49 CA        135.1440   41.6140   14.7760 C.3      10 GLP5        0.0000 
     50 CA        132.7010   39.1840   16.7205 C.3       5 GLC5        0.0000 
     51 CA        131.6930   40.2460   17.9960 C.3      10 GLP5        0.0000 
     52 CA        132.1015   39.1560   14.8130 C.3       5 GLC5        0.0000 
     53 CA        130.4940   40.1900   14.1810 C.3      10 GLP5        0.0000 
     54 CA        132.1985   38.2390   17.1620 C.3       5 GLC5        0.0000 
     55 CA        132.7040   36.2320   16.3280 C.3      15 GLL5        0.0000 
     56 CA        130.6090   36.9850   16.2265 C.3       5 GLC5        0.0000 
     57 CA        127.7138   32.8582   17.5280 C.3       5 GLC5        0.0000 
     58 CA        126.2220   33.0230   18.7210 C.3      10 GLP5        0.0000 
     59 CA        135.8510   36.0363   16.9645 C.3       5 GLC5        0.0000 
     60 CA        133.6430   36.1970   17.3560 C.3      15 GLL5        0.0000 
     61 CA        137.5650   35.4000   16.5500 C.3      10 GLP5        0.0000 
     62 CA        134.0648   34.4953   16.2560 C.3       5 GLC5        0.0000 
     63 CA        133.6970   37.9823   18.8820 C.3       5 GLC5        0.0000 
     64 CA        133.2570   39.2920   20.3850 C.3      10 GLP5        0.0000 
     65 CA        131.9358   36.3963   18.5715 C.3       5 GLC5        0.0000 
     66 CA        130.6980   36.5780   20.3010 C.3      10 GLP5        0.0000 
@<TRIPOS>BOND
@<TRIPOS>SUBSTRUCTURE
     1 ALC1       39 GROUP        1 X    ALC  0     ROOT ALC X 1
     2 SEC2        4 GROUP        1 X    SEC  0     **** SEC X 2
     3 LYC4        7 GROUP        1 X    LYC  0     **** LYC X 4
     4 ZIC7        1 GROUP        1 X    ZIC  0     **** ZIC X 5
     5 GLC5       28 GROUP        1 X    GLC  0     **** GLC X 6
     6 ALP1       41 GROUP        1 Y    ALP  0     ROOT ALP Y 8
     7 SEP2        6 GROUP        1 Y    SEP  0     **** SEP Y 9
     8 LYP4        9 GROUP        1 Y    LYP  0     **** LYP Y 11
     9 ZIP7        3 GROUP        1 Y    ZIP  0     **** ZIP Y 12
    10 GLP5       30 GROUP        1 Y    GLP  0     **** GLP Y 13
    11 ALL1       40 GROUP        1 Z    ALL  0     ROOT ALL Z 15
    12 SEL2        5 GROUP        1 Z    SEL  0     **** SEL Z 16
    13 LYL4        8 GROUP        1 Z    LYL  0     **** LYL Z 18
    14 ZIL7        2 GROUP        1 Z    ZIL  0     **** ZIL Z 19
    15 GLL5       29 GROUP        1 Z    GLL  0     **** GLL Z 20
@<TRIPOS>SET

