#    Name: 1r6b_ADP_1_ligand
#    Modification time : Tue Mar 25 00:25:05 2014

@<TRIPOS>MOLECULE
1r6b_ADP_1_ligand
   39    41     1     0     0
SMALL
NO_CHARGES


@<TRIPOS>ATOM
      1 PB        131.1560   28.2680   18.4670 P.3       1 ADP780      0.0000 
      2 O1B       132.0340   27.6510   17.4660 O.co2     1 ADP780      0.0000 
      3 O2B       131.8750   28.3440   19.8280 O.co2     1 ADP780      0.0000 
      4 O3B       129.8690   27.4670   18.6110 O.co2     1 ADP780      0.0000 
      5 PA        131.1870   30.3130   16.6180 P.3       1 ADP780      0.0000 
      6 O1A       132.6640   30.2660   16.3910 O.co2     1 ADP780      0.0000 
      7 O2A       130.3850   29.5960   15.5430 O.co2     1 ADP780      0.0000 
      8 O3A       130.8180   29.7450   18.0380 O.3       1 ADP780      0.0000 
      9 O5'       130.7130   31.7930   16.7570 O.3       1 ADP780      0.0000 
     10 C5'       129.3350   32.0970   16.7960 C.3       1 ADP780      0.0000 
     11 C4'       129.0760   33.2900   15.8740 C.3       1 ADP780      0.0000 
     12 O4'       129.6560   34.4570   16.4410 O.3       1 ADP780      0.0000 
     13 C3'       129.7340   33.1140   14.5180 C.3       1 ADP780      0.0000 
     14 O3'       129.0370   33.9210   13.7050 O.3       1 ADP780      0.0000 
     15 C2'       131.0380   33.7750   14.6530 C.3       1 ADP780      0.0000 
     16 O2'       131.4320   34.2860   13.4380 O.3       1 ADP780      0.0000 
     17 C1'       130.7380   34.9110   15.6350 C.3       1 ADP780      0.0000 
     18 N9        131.8770   35.2100   16.4890 N.pl3     1 ADP780      0.0000 
     19 C8        132.2630   34.5240   17.6290 C.2       1 ADP780      0.0000 
     20 N7        133.3600   35.1480   18.1390 N.2       1 ADP780      0.0000 
     21 C5        133.6430   36.1970   17.3560 C.ar      1 ADP780      0.0000 
     22 C6        134.6310   37.1480   17.4020 C.ar      1 ADP780      0.0000 
     23 N6        135.4830   37.2110   18.4530 N.pl3     1 ADP780      0.0000 
     24 N1        134.6590   38.1130   16.4240 N.ar      1 ADP780      0.0000 
     25 C2        133.7090   38.1220   15.4450 C.ar      1 ADP780      0.0000 
     26 N3        132.7430   37.1810   15.4080 N.ar      1 ADP780      0.0000 
     27 C4        132.7040   36.2320   16.3280 C.ar      1 ADP780      0.0000 
     28 H         128.9990   32.3755   17.7979 H         1 ADP780      0.0000 
     29 H         128.7163   31.2678   16.4440 H         1 ADP780      0.0000 
     30 H         128.0241   33.4086   15.7349 H         1 ADP780      0.0000 
     31 H         129.8083   32.1421   14.2727 H         1 ADP780      0.0000 
     32 H         131.7238   33.1216   15.1138 H         1 ADP780      0.0000 
     33 H         130.4458   35.7703   15.0634 H         1 ADP780      0.0000 
     34 H         131.8283   33.7535   17.9819 H         1 ADP780      0.0000 
     35 H         136.1776   37.9294   18.4139 H         1 ADP780      0.0000 
     36 H         135.3420   36.5336   19.1749 H         1 ADP780      0.0000 
     37 H         133.7357   38.8715   14.7161 H         1 ADP780      0.0000 
     38 H         129.6977   34.6009   13.3868 H         1 ADP780      0.0000 
     39 H         131.8665   35.1604   13.6538 H         1 ADP780      0.0000 
@<TRIPOS>BOND
     1    2    1 ar   
     2    3    1 ar   
     3    4    1 ar   
     4    8    1 1    
     5    6    5 ar   
     6    7    5 ar   
     7    8    5 1    
     8    9    5 1    
     9   10    9 1    
    10   11   10 1    
    11   28   10 1    
    12   29   10 1    
    13   12   11 1    
    14   13   11 1    
    15   30   11 1    
    16   17   12 1    
    17   14   13 1    
    18   15   13 1    
    19   31   13 1    
    20   38   14 1    
    21   16   15 1    
    22   17   15 1    
    23   32   15 1    
    24   39   16 1    
    25   18   17 1    
    26   33   17 1    
    27   19   18 1    
    28   27   18 1    
    29   20   19 2    
    30   34   19 1    
    31   21   20 1    
    32   22   21 ar   
    33   27   21 ar   
    34   23   22 1    
    35   24   22 ar   
    36   35   23 1    
    37   36   23 1    
    38   25   24 ar   
    39   26   25 ar   
    40   37   25 1    
    41   27   26 ar   
@<TRIPOS>SUBSTRUCTURE
     1 ADP780      1 GROUP   
@<TRIPOS>SET

