#    Name: 4mkb_28V_2_INTS_M
#    Modification time : Tue Mar 25 12:15:02 2014

@<TRIPOS>MOLECULE
4mkb_28V_2_INTS_M
   74     0     9     0     0
SMALL
NO_CHARGES


@<TRIPOS>ATOM
      1 N          32.6895   -8.6860   24.1995 N.am      2 SEC2        0.0000 
      2 N          33.0210   -8.6790   22.8440 N.am      8 SEL2        0.0000 
      3 N          32.3580   -8.6930   25.5550 N.am      5 SEP2        0.0000 
      4 N          34.2630   -9.7720   22.7865 N.am      2 SEC2        0.0000 
      5 N          35.5050  -10.8650   22.7290 N.am      5 SEP2        0.0000 
      6 O          33.1585  -10.5800   20.9365 O.2       1 ALC1        0.0000 
      7 O          33.0360   -9.2190   20.4610 O.2       7 ALL1        0.0000 
      8 O          33.2810  -11.9410   21.4120 O.2       4 ALP1        0.0000 
      9 CA         31.4140   -6.4120   19.0250 C.3       3 GLC5        0.0000 
     10 CA         32.5050   -7.9690   18.4110 C.3       9 GLL5        0.0000 
     11 CA         30.3230   -4.8550   19.6390 C.3       6 GLP5        0.0000 
     12 CA         35.7160  -10.7655   16.1055 C.3       3 GLC5        0.0000 
     13 CA         34.3300   -9.4970   17.0040 C.3       9 GLL5        0.0000 
     14 CA         37.1020  -12.0340   15.2070 C.3       6 GLP5        0.0000 
     15 CA         35.3735  -11.4995   18.4950 C.3       3 GLC5        0.0000 
     16 CA         34.1450   -9.7220   18.3560 C.3       9 GLL5        0.0000 
     17 CA         36.6020  -13.2770   18.6340 C.3       6 GLP5        0.0000 
     18 CA         35.8435  -10.4625   14.6200 C.3       3 GLC5        0.0000 
     19 CA         34.5850   -8.8910   14.0330 C.3       9 GLL5        0.0000 
     20 CA         33.0620   -6.4240    8.4155 C.3       3 GLC5        0.0000 
     21 CA         32.3570   -7.4270    9.8220 C.3       9 GLL5        0.0000 
     22 CA         33.7670   -5.4210    7.0090 C.3       6 GLP5        0.0000 
     23 N          32.7200   -4.3740   12.0480 N.am      2 SEC2        0.0000 
     24 N          32.4160   -5.4850   11.2460 N.am      8 SEL2        0.0000 
     25 N          33.0240   -3.2630   12.8500 N.am      5 SEP2        0.0000 
     26 O          30.2935   -4.3190    9.7600 O.2       1 ALC1        0.0000 
     27 O          30.9150   -5.5570    9.5440 O.2       7 ALL1        0.0000 
     28 O          29.6720   -3.0810    9.9760 O.2       4 ALP1        0.0000 
     29 CA         32.8270   -7.3665    7.4710 C.3       3 GLC5        0.0000 
     30 CA         31.7130   -8.0330    8.7640 C.3       9 GLL5        0.0000 
     31 CA         33.9410   -6.7000    6.1780 C.3       6 GLP5        0.0000 
     32 CA         37.4460   -8.1850    7.1625 C.3       3 GLC5        0.0000 
     33 CA         36.4450   -9.7840    7.9720 C.3       9 GLL5        0.0000 
     34 CA         38.4470   -6.5860    6.3530 C.3       6 GLP5        0.0000 
     35 CA         38.5300  -10.5645    7.8205 C.3       3 GLC5        0.0000 
     36 CA         40.6150  -11.3450    7.6690 C.3       6 GLP5        0.0000 
     37 CA         35.1930   -8.2420    7.0750 C.3       3 GLC5        0.0000 
     38 CA         35.0380  -10.8880    7.4425 C.3       3 GLC5        0.0000 
     39 CA         33.6310  -11.9920    6.9130 C.3       6 GLP5        0.0000 
     40 CA         39.3795   -8.2100    8.2525 C.3       3 GLC5        0.0000 
     41 CA         38.1080   -9.0550    9.6290 C.3       9 GLL5        0.0000 
     42 CA         40.6510   -7.3650    6.8760 C.3       6 GLP5        0.0000 
     43 CA         39.6505   -9.8065   10.3815 C.3       3 GLC5        0.0000 
     44 CA         41.1930  -10.5580   11.1340 C.3       6 GLP5        0.0000 
     45 CA         39.3615  -10.2000    8.6490 C.3       3 GLC5        0.0000 
     46 CA         37.3830   -7.3600   10.8545 C.3       3 GLC5        0.0000 
     47 CA         36.6580   -5.6650   12.0800 C.3       6 GLP5        0.0000 
     48 CA         39.1035  -10.9410   10.4835 C.3       3 GLC5        0.0000 
     49 CA         37.0140  -11.3240    9.8330 C.3       9 GLL5        0.0000 
     50 CA         36.5960  -12.0450   11.8285 C.3       3 GLC5        0.0000 
     51 CA         36.1780  -12.7660   13.8240 C.3       6 GLP5        0.0000 
     52 CA         36.7480  -13.1670    9.5600 C.3       3 GLC5        0.0000 
     53 CA         36.4820  -15.0100    9.2870 C.3       6 GLP5        0.0000 
     54 CA         38.8145  -11.3345    8.7510 C.3       3 GLC5        0.0000 
     55 CA         39.4310   -9.8365   12.1205 C.3       3 GLC5        0.0000 
     56 CA         37.6690   -9.1150   13.1070 C.3       9 GLL5        0.0000 
     57 CA         37.3855  -10.5745   14.1570 C.3       3 GLC5        0.0000 
     58 CA         37.1635   -7.3900   12.5935 C.3       3 GLC5        0.0000 
     59 CA         30.4565   -6.7395   23.3545 C.3       3 GLC5        0.0000 
     60 CA         30.8670   -8.0300   21.5700 C.3       9 GLL5        0.0000 
     61 CA         30.0460   -5.4490   25.1390 C.3       6 GLP5        0.0000 
     62 CA         30.5950   -6.4425   20.6045 C.3       3 GLC5        0.0000 
     63 CA         36.2788   -9.4573   17.7575 C.3       3 GLC5        0.0000 
     64 CA         38.3200   -9.3050   17.8350 C.3       6 GLP5        0.0000 
     65 CA         35.2365   -7.3308   15.6445 C.3       3 GLC5        0.0000 
     66 CA         33.7210   -8.3300   14.8790 C.3       9 GLL5        0.0000 
     67 CA         36.3200   -6.0510   16.8330 C.3       6 GLP5        0.0000 
     68 CA         34.9385   -6.7893   13.6505 C.3       3 GLC5        0.0000 
     69 CA         35.7240   -4.9680   12.8450 C.3       6 GLP5        0.0000 
     70 CA         35.6525  -10.9032   13.0030 C.3       3 GLC5        0.0000 
     71 CA         34.6060   -8.7680   12.5660 C.3       9 GLL5        0.0000 
     72 CA         35.0897   -6.8701    9.5116 C.3       3 GLC5        0.0000 
     73 CA         35.6540   -9.2390   10.3720 C.3       9 GLL5        0.0000 
     74 CA         35.8710   -5.2420    8.7320 C.3       6 GLP5        0.0000 
@<TRIPOS>BOND
@<TRIPOS>SUBSTRUCTURE
     1 ALC1        6 GROUP        1 X    ALC  0     ROOT ALC X 1
     2 SEC2        1 GROUP        1 X    SEC  0     **** SEC X 2
     3 GLC5        9 GROUP        1 X    GLC  0     **** GLC X 6
     4 ALP1        8 GROUP        1 Y    ALP  0     ROOT ALP Y 8
     5 SEP2        3 GROUP        1 Y    SEP  0     **** SEP Y 9
     6 GLP5       11 GROUP        1 Y    GLP  0     **** GLP Y 13
     7 ALL1        7 GROUP        1 Z    ALL  0     ROOT ALL Z 15
     8 SEL2        2 GROUP        1 Z    SEL  0     **** SEL Z 16
     9 GLL5       10 GROUP        1 Z    GLL  0     **** GLL Z 20
@<TRIPOS>SET

