#    Name: 4mkb_28V_2_ligand
#    Modification time : Tue Mar 25 12:15:02 2014

@<TRIPOS>MOLECULE
4mkb_28V_2_ligand
   59    61     1     0     0
SMALL
NO_CHARGES


@<TRIPOS>ATOM
      1 S1         32.6140   -8.1270   21.5900 S.o2      1 28V601      0.0000 
      2 O2         33.0210   -8.6790   22.8440 O.2       1 28V601      0.0000 
      3 O3         33.1570   -6.8690   21.1770 O.2       1 28V601      0.0000 
      4 N4         33.0360   -9.2190   20.4610 N.pl3     1 28V601      0.0000 
      5 C5         33.2350   -8.9560   19.0720 C.ar      1 28V601      0.0000 
      6 C6         32.5050   -7.9690   18.4110 C.ar      1 28V601      0.0000 
      7 C7         32.7070   -7.7410   17.0630 C.ar      1 28V601      0.0000 
      8 C8         33.6220   -8.5000   16.3300 C.ar      1 28V601      0.0000 
      9 C9         34.3300   -9.4970   17.0040 C.ar      1 28V601      0.0000 
     10 C10        34.1450   -9.7220   18.3560 C.ar      1 28V601      0.0000 
     11 C11        33.7210   -8.3300   14.8790 C.2       1 28V601      0.0000 
     12 C12        34.5850   -8.8910   14.0330 C.2       1 28V601      0.0000 
     13 C13        34.6060   -8.7680   12.5660 C.ar      1 28V601      0.0000 
     14 C14        35.6480   -9.3130   11.7980 C.ar      1 28V601      0.0000 
     15 C15        35.6540   -9.2390   10.3720 C.ar      1 28V601      0.0000 
     16 C16        34.5620   -8.6040    9.7710 C.ar      1 28V601      0.0000 
     17 C17        33.5090   -8.0750   10.5110 C.ar      1 28V601      0.0000 
     18 C18        33.5340   -8.1640   11.9010 C.ar      1 28V601      0.0000 
     19 C19        32.3570   -7.4270    9.8220 C.2       1 28V601      0.0000 
     20 C20        31.9390   -6.0940   10.2750 C.2       1 28V601      0.0000 
     21 O21        32.4160   -5.4850   11.2460 O.2       1 28V601      0.0000 
     22 N22        30.9150   -5.5570    9.5440 N.am      1 28V601      0.0000 
     23 N24        30.2750   -6.1230    8.4800 N.2       1 28V601      0.0000 
     24 C25        30.6770   -7.3500    8.1100 C.2       1 28V601      0.0000 
     25 C26        31.7130   -8.0330    8.7640 C.2       1 28V601      0.0000 
     26 C27        36.7740   -9.8380    9.4760 C.3       1 28V601      0.0000 
     27 C28        36.4450   -9.7840    7.9720 C.3       1 28V601      0.0000 
     28 C29        38.1080   -9.0550    9.6290 C.3       1 28V601      0.0000 
     29 C30        37.0140  -11.3240    9.8330 C.3       1 28V601      0.0000 
     30 O31        36.7000   -9.9400   12.4450 O.3       1 28V601      0.0000 
     31 C32        37.6690   -9.1150   13.1070 C.3       1 28V601      0.0000 
     32 C33        30.8670   -8.0300   21.5700 C.3       1 28V601      0.0000 
     33 H          33.1527  -10.1654   20.8585 H         1 28V601      0.0000 
     34 H          31.8144   -7.4110   18.9338 H         1 28V601      0.0000 
     35 H          32.1725   -6.9942   16.5811 H         1 28V601      0.0000 
     36 H          35.0078  -10.0782   16.4744 H         1 28V601      0.0000 
     37 H          34.6828  -10.4594   18.8352 H         1 28V601      0.0000 
     38 H          32.9702   -7.6471   14.4846 H         1 28V601      0.0000 
     39 H          35.3774   -9.5149   14.4156 H         1 28V601      0.0000 
     40 H          34.5392   -8.5258    8.7310 H         1 28V601      0.0000 
     41 H          32.7488   -7.7782   12.4520 H         1 28V601      0.0000 
     42 H          30.5742   -4.5697    9.8451 H         1 28V601      0.0000 
     43 H          30.2132   -7.8386    7.3021 H         1 28V601      0.0000 
     44 H          31.9798   -8.9699    8.4513 H         1 28V601      0.0000 
     45 H          37.1788  -10.1759    7.4170 H         1 28V601      0.0000 
     46 H          35.6110  -10.2916    7.7558 H         1 28V601      0.0000 
     47 H          36.3073   -8.8455    7.6554 H         1 28V601      0.0000 
     48 H          38.4410   -9.0694   10.5718 H         1 28V601      0.0000 
     49 H          38.8321   -9.4395    9.0565 H         1 28V601      0.0000 
     50 H          38.0071   -8.0948    9.3684 H         1 28V601      0.0000 
     51 H          37.7296  -11.7314    9.2656 H         1 28V601      0.0000 
     52 H          37.2961  -11.4362   10.7858 H         1 28V601      0.0000 
     53 H          36.1892  -11.8747    9.7047 H         1 28V601      0.0000 
     54 H          38.3865   -9.6600   13.5407 H         1 28V601      0.0000 
     55 H          38.1204   -8.4890   12.4710 H         1 28V601      0.0000 
     56 H          37.2527   -8.5552   13.8234 H         1 28V601      0.0000 
     57 H          30.5186   -7.4531   22.3088 H         1 28V601      0.0000 
     58 H          30.5262   -7.6454   20.7121 H         1 28V601      0.0000 
     59 H          30.4438   -8.9298   21.6764 H         1 28V601      0.0000 
@<TRIPOS>BOND
     1    2    1 2    
     2    3    1 2    
     3    4    1 1    
     4   32    1 1    
     5    5    4 1    
     6   33    4 1    
     7    6    5 ar   
     8   10    5 ar   
     9    7    6 ar   
    10   34    6 1    
    11    8    7 ar   
    12   35    7 1    
    13    9    8 ar   
    14   11    8 1    
    15   10    9 ar   
    16   36    9 1    
    17   37   10 1    
    18   12   11 2    
    19   38   11 1    
    20   13   12 1    
    21   39   12 1    
    22   14   13 ar   
    23   18   13 ar   
    24   15   14 ar   
    25   30   14 1    
    26   16   15 ar   
    27   26   15 1    
    28   17   16 ar   
    29   40   16 1    
    30   18   17 ar   
    31   19   17 1    
    32   41   18 1    
    33   20   19 1    
    34   25   19 2    
    35   21   20 2    
    36   22   20 am   
    37   23   22 1    
    38   42   22 1    
    39   24   23 2    
    40   25   24 1    
    41   43   24 1    
    42   44   25 1    
    43   27   26 1    
    44   28   26 1    
    45   29   26 1    
    46   45   27 1    
    47   46   27 1    
    48   47   27 1    
    49   48   28 1    
    50   49   28 1    
    51   50   28 1    
    52   51   29 1    
    53   52   29 1    
    54   53   29 1    
    55   31   30 1    
    56   54   31 1    
    57   55   31 1    
    58   56   31 1    
    59   57   32 1    
    60   58   32 1    
    61   59   32 1    
@<TRIPOS>SUBSTRUCTURE
     1 28V601      1 GROUP   
@<TRIPOS>SET

