#    Name: 3ocs_746_1_INTS_M
#    Modification time : Tue Mar 25 03:39:26 2014

@<TRIPOS>MOLECULE
3ocs_746_1_INTS_M
   85     0     9     0     0
SMALL
NO_CHARGES


@<TRIPOS>ATOM
      1 CA        -45.6540   22.1920   11.4305 C.3       3 GLC5        0.0000 
      2 CA        -44.6160   21.2870    9.6830 C.3       9 GLL5        0.0000 
      3 CA        -46.6920   23.0970   13.1780 C.3       6 GLP5        0.0000 
      4 CA        -44.8335   19.2595   11.6555 C.3       3 GLC5        0.0000 
      5 CA        -44.0610   20.0290    9.9420 C.3       9 GLL5        0.0000 
      6 CA        -45.6060   18.4900   13.3690 C.3       6 GLP5        0.0000 
      7 CA        -45.8725   19.5720    9.7010 C.3       3 GLC5        0.0000 
      8 CA        -47.6840   19.1150    9.4600 C.3       6 GLP5        0.0000 
      9 CA        -44.0005   17.0490   11.0225 C.3       3 GLC5        0.0000 
     10 CA        -42.9260   17.9460    9.2810 C.3       9 GLL5        0.0000 
     11 CA        -45.0750   16.1520   12.7640 C.3       6 GLP5        0.0000 
     12 N         -40.7780   13.2095   10.6615 N.am      2 SEC2        0.0000 
     13 N         -41.4760   14.3530   10.3900 N.am      8 SEL2        0.0000 
     14 N         -40.0800   12.0660   10.9330 N.am      5 SEP2        0.0000 
     15 CA        -44.3435   15.2275    8.8405 C.3       3 GLC5        0.0000 
     16 CA        -43.0560   16.8260    8.4530 C.3       9 GLL5        0.0000 
     17 CA        -45.6310   13.6290    9.2280 C.3       6 GLP5        0.0000 
     18 N         -45.6700   19.1490    4.6030 N.am      2 SEC2        0.0000 
     19 N         -45.7550   20.3660    5.2980 N.am      8 SEL2        0.0000 
     20 N         -45.5850   17.9320    3.9080 N.am      5 SEP2        0.0000 
     21 CA        -45.5060   23.1080    5.0770 C.3       3 GLC5        0.0000 
     22 CA        -44.5750   21.6650    3.7080 C.3       9 GLL5        0.0000 
     23 CA        -46.4370   24.5510    6.4460 C.3       6 GLP5        0.0000 
     24 CA        -46.1355   19.5485    2.8850 C.3       3 GLC5        0.0000 
     25 CA        -45.5540   21.6330    2.7010 C.3       9 GLL5        0.0000 
     26 CA        -46.7170   17.4640    3.0690 C.3       6 GLP5        0.0000 
     27 CA        -44.9085   25.0855    0.7875 C.3       3 GLC5        0.0000 
     28 CA        -43.3710   24.4520   -0.2580 C.3       9 GLL5        0.0000 
     29 CA        -46.4460   25.7190    1.8330 C.3       6 GLP5        0.0000 
     30 CA        -43.0350   26.0385   -1.2670 C.3       3 GLC5        0.0000 
     31 CA        -42.6990   27.6250   -2.2760 C.3       6 GLP5        0.0000 
     32 CA        -46.4725   21.8980   -0.8980 C.3       3 GLC5        0.0000 
     33 CA        -44.7350   22.6520   -1.2770 C.3       9 GLL5        0.0000 
     34 CA        -48.2100   21.1440   -0.5190 C.3       6 GLP5        0.0000 
     35 CA        -45.1115   20.8555   -1.9925 C.3       3 GLC5        0.0000 
     36 CA        -45.4880   19.0590   -2.7080 C.3       6 GLP5        0.0000 
     37 CA        -44.5465   22.7890   -3.2105 C.3       3 GLC5        0.0000 
     38 CA        -44.3580   22.9260   -5.1440 C.3       6 GLP5        0.0000 
     39 CA        -45.8680   23.7220   -2.2055 C.3       3 GLC5        0.0000 
     40 CA        -47.0010   24.7920   -3.1340 C.3       6 GLP5        0.0000 
     41 CA        -40.7475   23.0450   -2.0260 C.3       3 GLC5        0.0000 
     42 CA        -42.3130   22.2910   -0.8480 C.3       9 GLL5        0.0000 
     43 CA        -39.1820   23.7990   -3.2040 C.3       6 GLP5        0.0000 
     44 CA        -42.2770   20.3915   -0.1120 C.3       3 GLC5        0.0000 
     45 CA        -42.2410   18.4920    0.6240 C.3       6 GLP5        0.0000 
     46 O         -40.0560   15.3325   12.2980 O.2       1 ALC1        0.0000 
     47 O         -41.2010   16.3770   12.0640 O.2       7 ALL1        0.0000 
     48 O         -38.9110   14.2880   12.5320 O.2       4 ALP1        0.0000 
     49 CA        -39.2555   14.7675   14.5440 C.3       3 GLC5        0.0000 
     50 CA        -40.3580   16.6430   14.2220 C.3       9 GLL5        0.0000 
     51 CA        -38.1530   12.8920   14.8660 C.3       6 GLP5        0.0000 
     52 CA        -44.1580   14.0640    8.5700 C.3       3 GLC5        0.0000 
     53 CA        -42.6850   14.4990    7.9120 C.3       9 GLL5        0.0000 
     54 CA        -41.6340   13.4290    6.4705 C.3       3 GLC5        0.0000 
     55 CA        -40.5830   12.3590    5.0290 C.3       6 GLP5        0.0000 
     56 CA        -41.1455   15.1680    7.5425 C.3       3 GLC5        0.0000 
     57 CA        -39.6060   15.8370    7.1730 C.3       6 GLP5        0.0000 
     58 CA        -37.5950   18.2665   14.4150 C.3       3 GLC5        0.0000 
     59 CA        -37.6350   18.6040   16.5350 C.3       9 GLL5        0.0000 
     60 CA        -37.5550   17.9290   12.2950 C.3       6 GLP5        0.0000 
     61 CA        -45.7105   20.1567    7.7908 C.3       3 GLC5        0.0000 
     62 CA        -43.5110   19.8210    7.5870 C.3       9 GLL5        0.0000 
     63 CA        -47.6250   19.8540    8.1080 C.3       6 GLP5        0.0000 
     64 CA        -45.3935   23.0078    7.1627 C.3       3 GLC5        0.0000 
     65 CA        -44.0810   21.0980    7.3600 C.3       9 GLL5        0.0000 
     66 CA        -46.1213   20.7065    8.5745 C.3       3 GLC5        0.0000 
     67 CA        -44.6190   21.8310    8.3990 C.3       9 GLL5        0.0000 
     68 CA        -41.2985   16.6115    8.0200 C.3       3 GLC5        0.0000 
     69 CA        -45.1274   17.7239    9.0370 C.3       3 GLC5        0.0000 
     70 CA        -47.1240   17.7290    9.3020 C.3       6 GLP5        0.0000 
     71 CA        -45.5547   23.9369    1.7021 C.3       3 GLC5        0.0000 
     72 CA        -42.8375   20.4760    1.1113 C.3       3 GLC5        0.0000 
     73 CA        -43.9290   22.4650    1.0910 C.3       9 GLL5        0.0000 
     74 CA        -39.3325   17.9153   12.7010 C.3       3 GLC5        0.0000 
     75 CA        -40.9550   17.2220   13.1040 C.3       9 GLL5        0.0000 
     76 CA        -42.7572   17.7979   14.3777 C.3       3 GLC5        0.0000 
     77 CA        -41.2650   18.5810   13.1100 C.3       9 GLL5        0.0000 
     78 CA        -44.4920   16.9680   15.0900 C.3       6 GLP5        0.0000 
     79 CA        -39.0903   18.4932   13.5373 C.3       3 GLC5        0.0000 
     80 CA        -40.9350   19.3540   14.2240 C.3       9 GLL5        0.0000 
     81 CA        -42.3460   16.9943   14.9345 C.3       3 GLC5        0.0000 
     82 CA        -40.0420   17.3980   15.3360 C.3       9 GLL5        0.0000 
     83 CA        -38.8775   17.4748   13.5370 C.3       3 GLC5        0.0000 
     84 CA        -36.4073   16.9105   15.8283 C.3       3 GLC5        0.0000 
     85 CA        -35.5030   15.6260   14.5640 C.3       6 GLP5        0.0000 
@<TRIPOS>BOND
@<TRIPOS>SUBSTRUCTURE
     1 ALC1       46 GROUP        1 X    ALC  0     ROOT ALC X 1
     2 SEC2       12 GROUP        1 X    SEC  0     **** SEC X 2
     3 GLC5        1 GROUP        1 X    GLC  0     **** GLC X 6
     4 ALP1       48 GROUP        1 Y    ALP  0     ROOT ALP Y 8
     5 SEP2       14 GROUP        1 Y    SEP  0     **** SEP Y 9
     6 GLP5        3 GROUP        1 Y    GLP  0     **** GLP Y 13
     7 ALL1       47 GROUP        1 Z    ALL  0     ROOT ALL Z 15
     8 SEL2       13 GROUP        1 Z    SEL  0     **** SEL Z 16
     9 GLL5        2 GROUP        1 Z    GLL  0     **** GLL Z 20
@<TRIPOS>SET

