#    Name: 3ocs_746_1_ligand
#    Modification time : Tue Mar 25 03:39:26 2014

@<TRIPOS>MOLECULE
3ocs_746_1_ligand
   80    84     1     0     0
SMALL
NO_CHARGES


@<TRIPOS>ATOM
      1 C1        -43.4850   19.2770    8.9010 C.ar      1 746999      0.0000 
      2 C2        -43.5110   19.8210    7.5870 C.ar      1 746999      0.0000 
      3 C3        -42.8960   19.0380    6.4330 C.3       1 746999      0.0000 
      4 C4        -44.0810   21.0980    7.3600 C.ar      1 746999      0.0000 
      5 C5        -44.6190   21.8310    8.3990 C.ar      1 746999      0.0000 
      6 C7        -44.6160   21.2870    9.6830 C.ar      1 746999      0.0000 
      7 C9        -44.0610   20.0290    9.9420 C.ar      1 746999      0.0000 
      8 C11       -42.9260   17.9460    9.2810 C.2       1 746999      0.0000 
      9 N12       -42.3180   17.7850   10.5020 N.2       1 746999      0.0000 
     10 C13       -41.8140   16.5890   10.8750 C.2       1 746999      0.0000 
     11 C14       -41.9410   15.4880   10.0310 C.2       1 746999      0.0000 
     12 O15       -41.4760   14.3530   10.3900 O.2       1 746999      0.0000 
     13 N16       -42.5430   15.6340    8.8460 N.am      1 746999      0.0000 
     14 C17       -43.0560   16.8260    8.4530 C.2       1 746999      0.0000 
     15 N19       -44.0360   21.5980    6.0870 N.am      1 746999      0.0000 
     16 C21       -44.8470   21.1770    5.1150 C.2       1 746999      0.0000 
     17 O22       -45.7550   20.3660    5.2980 O.2       1 746999      0.0000 
     18 C23       -44.5750   21.6650    3.7080 C.ar      1 746999      0.0000 
     19 C24       -45.5540   21.6330    2.7010 C.ar      1 746999      0.0000 
     20 C26       -45.2420   22.0560    1.4020 C.ar      1 746999      0.0000 
     21 C28       -43.9290   22.4650    1.0910 C.ar      1 746999      0.0000 
     22 C29       -42.9390   22.4550    2.1060 C.ar      1 746999      0.0000 
     23 C31       -43.2550   22.0560    3.4110 C.ar      1 746999      0.0000 
     24 C33       -43.5940   22.9400   -0.3100 C.3       1 746999      0.0000 
     25 C34       -43.3710   24.4520   -0.2580 C.3       1 746999      0.0000 
     26 C38       -44.7350   22.6520   -1.2770 C.3       1 746999      0.0000 
     27 C42       -42.3130   22.2910   -0.8480 C.3       1 746999      0.0000 
     28 C46       -40.9550   17.2220   13.1040 C.ar      1 746999      0.0000 
     29 N47       -41.2010   16.3770   12.0640 N.pl3     1 746999      0.0000 
     30 C48       -41.2650   18.5810   13.1100 C.ar      1 746999      0.0000 
     31 C49       -40.9350   19.3540   14.2240 C.ar      1 746999      0.0000 
     32 C50       -40.3160   18.7610   15.3350 C.ar      1 746999      0.0000 
     33 C51       -40.0420   17.3980   15.3360 C.ar      1 746999      0.0000 
     34 C52       -40.3580   16.6430   14.2220 C.ar      1 746999      0.0000 
     35 C60       -42.6850   14.4990    7.9120 C.3       1 746999      0.0000 
     36 C71       -39.9420   19.5750   16.5520 C.2       1 746999      0.0000 
     37 O72       -40.7860   20.3290   17.0010 O.2       1 746999      0.0000 
     38 C81       -37.7260   19.3120   19.2880 C.3       1 746999      0.0000 
     39 C82       -38.3390   20.2710   18.2700 C.3       1 746999      0.0000 
     40 N83       -38.7090   19.4680   17.0930 N.am      1 746999      0.0000 
     41 C84       -37.6350   18.6040   16.5350 C.3       1 746999      0.0000 
     42 C85       -36.9880   17.7860   17.6500 C.3       1 746999      0.0000 
     43 O86       -36.5880   18.6800   18.6860 O.3       1 746999      0.0000 
     44 H         -45.0152   22.7593    8.2360 H         1 746999      0.0000 
     45 H         -45.0338   21.8250   10.4643 H         1 746999      0.0000 
     46 H         -44.0722   19.6490   10.8958 H         1 746999      0.0000 
     47 H         -43.5440   16.9266    7.5498 H         1 746999      0.0000 
     48 H         -43.3200   22.3528    5.8785 H         1 746999      0.0000 
     49 H         -46.4986   21.2991    2.9186 H         1 746999      0.0000 
     50 H         -45.9637   22.0694    0.6771 H         1 746999      0.0000 
     51 H         -41.9810   22.7451    1.8741 H         1 746999      0.0000 
     52 H         -42.5425   22.0476    4.1375 H         1 746999      0.0000 
     53 H         -40.8346   15.3351   12.2209 H         1 746999      0.0000 
     54 H         -41.7301   19.0084   12.3057 H         1 746999      0.0000 
     55 H         -41.1441   20.3588   14.2341 H         1 746999      0.0000 
     56 H         -39.6100   16.9607   16.1562 H         1 746999      0.0000 
     57 H         -40.1489   15.6269   14.2135 H         1 746999      0.0000 
     58 H         -38.4892   18.5867   19.5696 H         1 746999      0.0000 
     59 H         -37.4483   19.8891   20.1698 H         1 746999      0.0000 
     60 H         -37.6048   21.0188   18.0122 H         1 746999      0.0000 
     61 H         -39.2085   20.7347   18.7102 H         1 746999      0.0000 
     62 H         -36.8674   19.2146   16.0587 H         1 746999      0.0000 
     63 H         -38.0473   17.9195   15.7932 H         1 746999      0.0000 
     64 H         -36.1395   17.2501   17.2231 H         1 746999      0.0000 
     65 H         -37.7207   17.0578   17.9995 H         1 746999      0.0000 
     66 H         -41.9228   18.8616    6.5808 H         1 746999      0.0000 
     67 H         -43.3392   18.1503    6.3086 H         1 746999      0.0000 
     68 H         -42.9763   19.5298    5.5660 H         1 746999      0.0000 
     69 H         -42.6207   24.6958    0.3565 H         1 746999      0.0000 
     70 H         -43.1459   24.8254   -1.1580 H         1 746999      0.0000 
     71 H         -44.1839   24.9364    0.0653 H         1 746999      0.0000 
     72 H         -44.5239   22.9629   -2.2037 H         1 746999      0.0000 
     73 H         -44.9352   21.6739   -1.3345 H         1 746999      0.0000 
     74 H         -45.5806   23.1085   -1.0002 H         1 746999      0.0000 
     75 H         -41.5214   22.4997   -0.2737 H         1 746999      0.0000 
     76 H         -42.3905   21.2949   -0.8895 H         1 746999      0.0000 
     77 H         -42.0963   22.6068   -1.7717 H         1 746999      0.0000 
     78 H         -41.7969   14.1274    7.6413 H         1 746999      0.0000 
     79 H         -43.2060   13.7477    8.3170 H         1 746999      0.0000 
     80 H         -43.1592   14.7656    7.0729 H         1 746999      0.0000 
@<TRIPOS>BOND
     1    2    1 ar   
     2    7    1 ar   
     3    8    1 1    
     4    3    2 1    
     5    4    2 ar   
     6   66    3 1    
     7   67    3 1    
     8   68    3 1    
     9    5    4 ar   
    10   15    4 1    
    11    6    5 ar   
    12   44    5 1    
    13    7    6 ar   
    14   45    6 1    
    15   46    7 1    
    16    9    8 1    
    17   14    8 2    
    18   10    9 2    
    19   11   10 1    
    20   29   10 1    
    21   12   11 2    
    22   13   11 am   
    23   14   13 1    
    24   35   13 1    
    25   47   14 1    
    26   16   15 am   
    27   48   15 1    
    28   17   16 2    
    29   18   16 1    
    30   19   18 ar   
    31   23   18 ar   
    32   20   19 ar   
    33   49   19 1    
    34   21   20 ar   
    35   50   20 1    
    36   22   21 ar   
    37   24   21 1    
    38   23   22 ar   
    39   51   22 1    
    40   52   23 1    
    41   25   24 1    
    42   26   24 1    
    43   27   24 1    
    44   69   25 1    
    45   70   25 1    
    46   71   25 1    
    47   72   26 1    
    48   73   26 1    
    49   74   26 1    
    50   75   27 1    
    51   76   27 1    
    52   77   27 1    
    53   29   28 1    
    54   30   28 ar   
    55   34   28 ar   
    56   53   29 1    
    57   31   30 ar   
    58   54   30 1    
    59   32   31 ar   
    60   55   31 1    
    61   33   32 ar   
    62   36   32 1    
    63   34   33 ar   
    64   56   33 1    
    65   57   34 1    
    66   78   35 1    
    67   79   35 1    
    68   80   35 1    
    69   37   36 2    
    70   40   36 am   
    71   39   38 1    
    72   43   38 1    
    73   58   38 1    
    74   59   38 1    
    75   40   39 1    
    76   60   39 1    
    77   61   39 1    
    78   41   40 1    
    79   42   41 1    
    80   62   41 1    
    81   63   41 1    
    82   43   42 1    
    83   64   42 1    
    84   65   42 1    
@<TRIPOS>SUBSTRUCTURE
     1 746999      1 GROUP   
@<TRIPOS>SET

