#    Name: 2byi_2DD_1_INTS_M
#    Modification time : Mon Mar 24 21:57:53 2014

@<TRIPOS>MOLECULE
2byi_2DD_1_INTS_M
   62     0     9     0     0
SMALL
NO_CHARGES


@<TRIPOS>ATOM
      1 CA          6.0240   -1.4600   10.9240 C.3       3 GLC5        0.0000 
      2 CA          7.1870    0.0500   10.6090 C.3       9 GLL5        0.0000 
      3 CA          4.8610   -2.9700   11.2390 C.3       6 GLP5        0.0000 
      4 CA          8.0695   -1.3780   10.4555 C.3       3 GLC5        0.0000 
      5 CA          8.9520   -2.8060   10.3020 C.3       6 GLP5        0.0000 
      6 CA          9.8090    1.8510   12.4310 C.3       3 GLC5        0.0000 
      7 CA          8.2860    2.4960   11.1630 C.3       9 GLL5        0.0000 
      8 CA         11.3320    1.2060   13.6990 C.3       6 GLP5        0.0000 
      9 CA          7.2420    4.5775   13.6165 C.3       3 GLC5        0.0000 
     10 CA          6.9850    4.4360   11.7660 C.3       9 GLL5        0.0000 
     11 CA          7.4990    4.7190   15.4670 C.3       6 GLP5        0.0000 
     12 O           7.4650    7.0600   13.0180 O.2       1 ALC1        0.0000 
     13 O           6.9230    5.7370   12.0680 O.2       7 ALL1        0.0000 
     14 O           8.0070    8.3830   13.9680 O.2       4 ALP1        0.0000 
     15 O           8.0030    6.3250   12.4390 O.2       1 ALC1        0.0000 
     16 O           9.0830    6.9130   12.8100 O.2       4 ALP1        0.0000 
     17 O          10.4835    2.7405   10.8920 O.2       1 ALC1        0.0000 
     18 O           9.4590    1.9270   10.8740 O.2       7 ALL1        0.0000 
     19 O          11.5080    3.5540   10.9100 O.2       4 ALP1        0.0000 
     20 CA          6.8600    3.4545   13.4650 C.3       3 GLC5        0.0000 
     21 CA          5.8150    3.6980   11.5950 C.3       9 GLL5        0.0000 
     22 CA          7.9050    3.2110   15.3350 C.3       6 GLP5        0.0000 
     23 O           5.0745    4.8875   14.2050 O.2       1 ALC1        0.0000 
     24 O           4.0990    5.0280   12.9010 O.2       7 ALL1        0.0000 
     25 O           6.0500    4.7470   15.5090 O.2       4 ALP1        0.0000 
     26 CA          2.6630    3.3530   12.7080 C.3       3 GLC5        0.0000 
     27 CA          3.3940    4.3070   10.9270 C.3       9 GLL5        0.0000 
     28 CA          1.9320    2.3990   14.4890 C.3       6 GLP5        0.0000 
     29 O           5.5720    4.6840    8.5875 O.2       1 ALC1        0.0000 
     30 O           4.3790    3.5110    8.7710 O.2       7 ALL1        0.0000 
     31 O           6.7650    5.8570    8.4040 O.2       4 ALP1        0.0000 
     32 CA          4.4440    4.9385    6.6360 C.3       3 GLC5        0.0000 
     33 CA          4.2630    3.0920    7.4800 C.3       9 GLL5        0.0000 
     34 CA          4.6250    6.7850    5.7920 C.3       6 GLP5        0.0000 
     35 CA          4.5430   -1.8315    9.6785 C.3       3 GLC5        0.0000 
     36 CA          4.2250   -0.6930    8.1180 C.3       9 GLL5        0.0000 
     37 N           7.0755   -3.1415    5.7035 N.am      2 SEC2        0.0000 
     38 N           5.6020   -3.2320    5.7310 N.am      8 SEL2        0.0000 
     39 N           8.5490   -3.0510    5.6760 N.am      5 SEP2        0.0000 
     40 O           3.1240   -3.8430    8.7745 O.2       1 ALC1        0.0000 
     41 O           4.4500   -3.6960    7.8910 O.2       7 ALL1        0.0000 
     42 O           1.7980   -3.9900    9.6580 O.2       4 ALP1        0.0000 
     43 CA          5.4850    1.6635   12.8655 C.3       3 GLC5        0.0000 
     44 CA          7.1110    1.7580   11.0330 C.3       9 GLL5        0.0000 
     45 CA          4.4740    1.2730   14.5760 C.3       6 GLP5        0.0000 
     46 CA          8.2475    3.0733    9.4290 C.3       3 GLC5        0.0000 
     47 CA          8.2410    2.9740    7.5320 C.3       6 GLP5        0.0000 
     48 CA          8.0795    3.1917   13.3305 C.3       3 GLC5        0.0000 
     49 CA          8.3128    5.6428   10.4932 C.3       3 GLC5        0.0000 
     50 CA          8.2220    3.8490   11.4890 C.3       9 GLL5        0.0000 
     51 CA          9.0220    7.1430    9.3590 C.3       6 GLP5        0.0000 
     52 CA          5.6040    5.9595   11.3438 C.3       3 GLC5        0.0000 
     53 CA          4.8080    7.8520   11.0070 C.3       6 GLP5        0.0000 
     54 CA          7.3780    2.3005    9.2905 C.3       3 GLC5        0.0000 
     55 CA          5.8810    2.3500   11.2770 C.3       9 GLL5        0.0000 
     56 CA          4.8098    2.6433   13.1397 C.3       3 GLC5        0.0000 
     57 CA          4.3715    6.0850   11.1883 C.3       3 GLC5        0.0000 
     58 CA          4.4760    4.3290   11.8120 C.3       9 GLL5        0.0000 
     59 CA          6.0823   -2.0760    7.7678 C.3       3 GLC5        0.0000 
     60 CA          7.8560   -3.2150    8.0670 C.3       6 GLP5        0.0000 
     61 CA          6.3180    2.3406    7.1121 C.3       3 GLC5        0.0000 
     62 CA          4.4900    1.0790    5.9990 C.3       9 GLL5        0.0000 
@<TRIPOS>BOND
@<TRIPOS>SUBSTRUCTURE
     1 ALC1       12 GROUP        1 X    ALC  0     ROOT ALC X 1
     2 SEC2       37 GROUP        1 X    SEC  0     **** SEC X 2
     3 GLC5        1 GROUP        1 X    GLC  0     **** GLC X 6
     4 ALP1       14 GROUP        1 Y    ALP  0     ROOT ALP Y 8
     5 SEP2       39 GROUP        1 Y    SEP  0     **** SEP Y 9
     6 GLP5        3 GROUP        1 Y    GLP  0     **** GLP Y 13
     7 ALL1       13 GROUP        1 Z    ALL  0     ROOT ALL Z 15
     8 SEL2       38 GROUP        1 Z    SEL  0     **** SEL Z 16
     9 GLL5        2 GROUP        1 Z    GLL  0     **** GLL Z 20
@<TRIPOS>SET

