#    Name: 2byi_2DD_1_ligand
#    Modification time : Mon Mar 24 21:57:54 2014

@<TRIPOS>MOLECULE
2byi_2DD_1_ligand
   43    45     1     0     0
SMALL
NO_CHARGES


@<TRIPOS>ATOM
      1 CL1         7.1870    0.0500   10.6090 Cl        1 2DD1226     0.0000 
      2 C1          7.1110    1.7580   11.0330 C.ar      1 2DD1226     0.0000 
      3 C2          8.2860    2.4960   11.1630 C.ar      1 2DD1226     0.0000 
      4 C3          8.2220    3.8490   11.4890 C.ar      1 2DD1226     0.0000 
      5 C4          6.9850    4.4360   11.7660 C.ar      1 2DD1226     0.0000 
      6 O4          6.9230    5.7370   12.0680 O.3       1 2DD1226     0.0000 
      7 O2          9.4590    1.9270   10.8740 O.3       1 2DD1226     0.0000 
      8 C6          5.8810    2.3500   11.2770 C.ar      1 2DD1226     0.0000 
      9 C5          5.8150    3.6980   11.5950 C.ar      1 2DD1226     0.0000 
     10 C7          4.4760    4.3290   11.8120 C.2       1 2DD1226     0.0000 
     11 N2          4.0990    5.0280   12.9010 N.pl3     1 2DD1226     0.0000 
     12 N1          2.8570    5.4250   12.7540 N.2       1 2DD1226     0.0000 
     13 C9          2.3880    5.0120   11.5620 C.2       1 2DD1226     0.0000 
     14 C8          3.3940    4.3070   10.9270 C.2       1 2DD1226     0.0000 
     15 C10         3.2970    3.6750    9.5450 C.2       1 2DD1226     0.0000 
     16 O5          2.1920    3.3060    9.1230 O.2       1 2DD1226     0.0000 
     17 N3          4.3790    3.5110    8.7710 N.am      1 2DD1226     0.0000 
     18 C17         4.2630    3.0920    7.4800 C.3       1 2DD1226     0.0000 
     19 C11         4.3370    1.5790    7.2910 C.ar      1 2DD1226     0.0000 
     20 C12         4.1710    0.6890    8.3510 C.ar      1 2DD1226     0.0000 
     21 C13         4.2250   -0.6930    8.1180 C.ar      1 2DD1226     0.0000 
     22 C16         4.4900    1.0790    5.9990 C.ar      1 2DD1226     0.0000 
     23 C15         4.5410   -0.2900    5.7650 C.ar      1 2DD1226     0.0000 
     24 C14         4.3920   -1.1810    6.8190 C.ar      1 2DD1226     0.0000 
     25 S1          4.4500   -2.9140    6.5140 S.o2      1 2DD1226     0.0000 
     26 O6          5.6020   -3.2320    5.7310 O.2       1 2DD1226     0.0000 
     27 O7          3.2710   -3.3040    5.7710 O.2       1 2DD1226     0.0000 
     28 N4          4.4500   -3.6960    7.8910 N.pl3     1 2DD1226     0.0000 
     29 H           9.0770    4.4122   11.5259 H         1 2DD1226     0.0000 
     30 H           5.0197    1.7905   11.2222 H         1 2DD1226     0.0000 
     31 H           4.6775    5.2014   13.6717 H         1 2DD1226     0.0000 
     32 H           1.5159    5.1675   11.1984 H         1 2DD1226     0.0000 
     33 H           5.3346    3.7059    9.1566 H         1 2DD1226     0.0000 
     34 H           5.0548    3.5299    6.8098 H         1 2DD1226     0.0000 
     35 H           3.2969    3.4198    7.0035 H         1 2DD1226     0.0000 
     36 H           4.0096    1.0401    9.3002 H         1 2DD1226     0.0000 
     37 H           4.1414   -1.3463    8.9054 H         1 2DD1226     0.0000 
     38 H           4.5665    1.7370    5.2049 H         1 2DD1226     0.0000 
     39 H           4.6893   -0.6426    4.8097 H         1 2DD1226     0.0000 
     40 H           5.3479   -3.9133    8.2736 H         1 2DD1226     0.0000 
     41 H           3.5520   -3.9133    8.2736 H         1 2DD1226     0.0000 
     42 H           7.6525    5.8825   12.7363 H         1 2DD1226     0.0000 
     43 H          10.1311    2.6627   10.9579 H         1 2DD1226     0.0000 
@<TRIPOS>BOND
     1    2    1 1    
     2    3    2 ar   
     3    8    2 ar   
     4    4    3 ar   
     5    7    3 1    
     6    5    4 ar   
     7   29    4 1    
     8    6    5 1    
     9    9    5 ar   
    10   42    6 1    
    11   43    7 1    
    12    9    8 ar   
    13   30    8 1    
    14   10    9 1    
    15   11   10 1    
    16   14   10 2    
    17   12   11 1    
    18   31   11 1    
    19   13   12 2    
    20   14   13 1    
    21   32   13 1    
    22   15   14 1    
    23   16   15 2    
    24   17   15 am   
    25   18   17 1    
    26   33   17 1    
    27   19   18 1    
    28   34   18 1    
    29   35   18 1    
    30   20   19 ar   
    31   22   19 ar   
    32   21   20 ar   
    33   36   20 1    
    34   24   21 ar   
    35   37   21 1    
    36   23   22 ar   
    37   38   22 1    
    38   24   23 ar   
    39   39   23 1    
    40   25   24 1    
    41   26   25 2    
    42   27   25 2    
    43   28   25 1    
    44   40   28 1    
    45   41   28 1    
@<TRIPOS>SUBSTRUCTURE
     1 2DD1226     1 GROUP   
@<TRIPOS>SET

