#    Name: 1r37_NAD_1_INTS_M
#    Modification time : Tue Mar 25 00:16:35 2014

@<TRIPOS>MOLECULE
1r37_NAD_1_INTS_M
  126     0    12     0     0
SMALL
NO_CHARGES


@<TRIPOS>ATOM
      1 N          83.2005   11.0065   14.5905 N.am      2 SEC2        0.0000 
      2 N          83.0050   11.5370   13.2950 N.am     10 SEL2        0.0000 
      3 N          83.3960   10.4760   15.8860 N.am      6 SEP2        0.0000 
      4 N          81.3585   12.2465   10.0955 N.am      2 SEC2        0.0000 
      5 N          82.3690   11.6240   10.8040 N.am     10 SEL2        0.0000 
      6 N          80.3480   12.8690    9.3870 N.am      6 SEP2        0.0000 
      7 CA         79.7665    8.8290    9.7010 C.3       4 GLC5        0.0000 
      8 CA         81.3640    8.7140   11.2590 C.3      12 GLL5        0.0000 
      9 CA         78.1690    8.9440    8.1430 C.3       8 GLP5        0.0000 
     10 CA         81.5620    5.5765   11.9645 C.3       4 GLC5        0.0000 
     11 CA         82.1030    7.3980   11.1870 C.3      12 GLL5        0.0000 
     12 CA         81.0210    3.7550   12.7420 C.3       8 GLP5        0.0000 
     13 N          79.8175    6.2955   10.2350 N.am      2 SEC2        0.0000 
     14 N          81.3650    6.5560   10.2150 N.am     10 SEL2        0.0000 
     15 N          78.2700    6.0350   10.2550 N.am      6 SEP2        0.0000 
     16 CA         83.8935    8.0090   12.6480 C.3       4 GLC5        0.0000 
     17 CA         83.5710    7.4730   10.6110 C.3      12 GLL5        0.0000 
     18 CA         84.2160    8.5450   14.6850 C.3       8 GLP5        0.0000 
     19 N          85.6100    7.4390   10.7880 N.am      2 SEC2        0.0000 
     20 N          84.5260    6.9730   11.5960 N.am     10 SEL2        0.0000 
     21 N          86.6940    7.9050    9.9800 N.am      6 SEP2        0.0000 
     22 O          84.5140    5.5375   11.8420 O.2       1 ALC1        0.0000 
     23 O          84.5260    6.9730   11.5960 O.2       9 ALL1        0.0000 
     24 O          84.5020    4.1020   12.0880 O.2       5 ALP1        0.0000 
     25 N          85.9485    6.4390    8.4540 N.am      2 SEC2        0.0000 
     26 N          84.7050    6.0250    8.9120 N.am     10 SEL2        0.0000 
     27 N          87.1920    6.8530    7.9960 N.am      6 SEP2        0.0000 
     28 N          85.6995    6.9650    9.4460 N.am      2 SEC2        0.0000 
     29 O          84.8425    4.8460    9.4460 O.2       1 ALC1        0.0000 
     30 O          84.7050    6.0250    8.9120 O.2       9 ALL1        0.0000 
     31 O          84.9800    3.6670    9.9800 O.2       5 ALP1        0.0000 
     32 CA         81.6815    4.7420   11.1830 C.3       4 GLC5        0.0000 
     33 CA         82.3420    5.7290    9.6240 C.3      12 GLL5        0.0000 
     34 CA         81.8985    1.3565    6.5625 C.3       4 GLC5        0.0000 
     35 CA         80.3140    2.3060    6.6260 C.3      12 GLL5        0.0000 
     36 CA         83.4830    0.4070    6.4990 C.3       8 GLP5        0.0000 
     37 CA         78.3595    1.9820    7.3845 C.3       4 GLC5        0.0000 
     38 CA         76.4050    1.6580    8.1430 C.3       8 GLP5        0.0000 
     39 CA         79.2265    1.2360   10.1200 C.3       4 GLC5        0.0000 
     40 CA         80.7760    1.6130    8.9050 C.3      12 GLL5        0.0000 
     41 CA         77.6770    0.8590   11.3350 C.3       8 GLP5        0.0000 
     42 CA         80.8985    2.6840   10.8235 C.3       4 GLC5        0.0000 
     43 CA         82.5405    1.2470    9.8535 C.3       4 GLC5        0.0000 
     44 CA         84.3050    0.8810   10.8020 C.3       8 GLP5        0.0000 
     45 CA         82.1295    1.0100    7.7020 C.3       4 GLC5        0.0000 
     46 CA         78.5905    1.6355    8.5240 C.3       4 GLC5        0.0000 
     47 CA         81.1680    3.7960   10.5230 C.3       4 GLC5        0.0000 
     48 CA         81.3150    3.8370    8.3040 C.3      12 GLL5        0.0000 
     49 NZ         80.8100   13.7750   15.2875 N.4       3 LYC4        0.0000 
     50 NZ         80.0540   13.1430   14.3920 N.4      11 LYL4        0.0000 
     51 NZ         81.2870   15.0560   17.3090 N.4       7 LYP4        0.0000 
     52 N          79.7540   14.5175   13.6620 N.am      2 SEC2        0.0000 
     53 N          80.0540   13.1430   14.3920 N.am     10 SEL2        0.0000 
     54 N          79.4540   15.8920   12.9320 N.am      6 SEP2        0.0000 
     55 N          80.8100   13.7750   15.2875 N.am      2 SEC2        0.0000 
     56 N          81.5660   14.4070   16.1830 N.am      6 SEP2        0.0000 
     57 N          80.6385   10.4005   16.2105 N.am      2 SEC2        0.0000 
     58 N          80.2480   10.6310   14.8190 N.am     10 SEL2        0.0000 
     59 N          81.0290   10.1700   17.6020 N.am      6 SEP2        0.0000 
     60 CA         78.4975   12.2305   12.0920 C.3       4 GLC5        0.0000 
     61 CA         77.7620   10.4340   12.8450 C.3      12 GLL5        0.0000 
     62 CA         79.2330   14.0270   11.3390 C.3       8 GLP5        0.0000 
     63 CA         77.5125    8.4190   13.7785 C.3       4 GLC5        0.0000 
     64 CA         77.2630    6.4040   14.7120 C.3       8 GLP5        0.0000 
     65 CA         74.7980    9.5100   12.4840 C.3       4 GLC5        0.0000 
     66 CA         76.3320   10.6330   12.4860 C.3      12 GLL5        0.0000 
     67 CA         73.2640    8.3870   12.4820 C.3       8 GLP5        0.0000 
     68 CA         76.6005   10.8745   10.0350 C.3       4 GLC5        0.0000 
     69 CA         76.0170   11.8850   11.5700 C.3      12 GLL5        0.0000 
     70 CA         77.1840    9.8640    8.5000 C.3       8 GLP5        0.0000 
     71 N          73.8590   10.8090   10.6955 N.am      2 SEC2        0.0000 
     72 N          75.0760   11.5390   10.5290 N.am     10 SEL2        0.0000 
     73 N          72.6420   10.0790   10.8620 N.am      6 SEP2        0.0000 
     74 O          74.9465   12.6405    9.6205 O.2       1 ALC1        0.0000 
     75 O          75.0760   11.5390   10.5290 O.2       9 ALL1        0.0000 
     76 O          74.8170   13.7420    8.7120 O.2       5 ALP1        0.0000 
     77 CA         75.5285   14.9875   12.2235 C.3       4 GLC5        0.0000 
     78 CA         75.4090   12.9100   12.5440 C.3      12 GLL5        0.0000 
     79 CA         75.6480   17.0650   11.9030 C.3       8 GLP5        0.0000 
     80 CA         73.4420   12.5495   11.5685 C.3       4 GLC5        0.0000 
     81 CA         71.4750   12.1890   10.5930 C.3       8 GLP5        0.0000 
     82 N          74.4765   14.9910   12.8240 N.am      2 SEC2        0.0000 
     83 N          74.6090   13.8860   11.9270 N.am     10 SEL2        0.0000 
     84 N          74.3440   16.0960   13.7210 N.am      6 SEP2        0.0000 
     85 O          74.7130   13.8140   10.3195 O.2       1 ALC1        0.0000 
     86 O          74.6090   13.8860   11.9270 O.2       9 ALL1        0.0000 
     87 CA         73.9540   10.1780   13.0135 C.3       4 GLC5        0.0000 
     88 CA         74.6440   11.9690   13.5450 C.3      12 GLL5        0.0000 
     89 CA         72.7650   12.7610   13.0730 C.3       4 GLC5        0.0000 
     90 CA         70.8860   13.5530   12.6010 C.3       8 GLP5        0.0000 
     91 CA         71.9875   12.8950   14.0345 C.3       4 GLC5        0.0000 
     92 CA         73.0890   12.2370   15.4680 C.3      12 GLL5        0.0000 
     93 N          70.3770   13.1275   19.3635 N.am      2 SEC2        0.0000 
     94 N          70.9530   13.0540   18.1980 N.am     10 SEL2        0.0000 
     95 N          69.8010   13.2010   20.5290 N.am      6 SEP2        0.0000 
     96 O          71.1860   10.4580   15.5855 O.2       1 ALC1        0.0000 
     97 O          70.6830   11.3060   16.7830 O.2       9 ALL1        0.0000 
     98 O          71.6890    9.6100   14.3880 O.2       5 ALP1        0.0000 
     99 O          69.7310   10.5160   17.5180 O.2       1 ALC1        0.0000 
    100 O          68.7790    9.7260   18.2530 O.2       5 ALP1        0.0000 
    101 CA         72.3045   14.6930   18.7985 C.3       4 GLC5        0.0000 
    102 CA         73.6740   13.5410   17.5480 C.3      12 GLL5        0.0000 
    103 CA         70.9350   15.8450   20.0490 C.3       8 GLP5        0.0000 
    104 CA         82.9748    8.3005   12.9540 C.3       4 GLC5        0.0000 
    105 CA         83.2965    8.3008    8.4262 C.3       4 GLC5        0.0000 
    106 CA         83.0380    9.5370    6.8840 C.3       8 GLP5        0.0000 
    107 CA         82.7290    3.2240    6.8982 C.3       4 GLC5        0.0000 
    108 CA         84.3760    2.7110    6.1550 C.3       8 GLP5        0.0000 
    109 CA         77.1155   10.1988   10.5828 C.3       4 GLC5        0.0000 
    110 CA         77.4730   13.2122   11.6980 C.3       4 GLC5        0.0000 
    111 CA         74.9920   13.6647   10.5930 C.3       4 GLC5        0.0000 
    112 CA         74.2710   14.9320    9.1290 C.3       8 GLP5        0.0000 
    113 CA         74.6605   11.5225   16.8897 C.3       4 GLC5        0.0000 
    114 CA         76.4090   10.5860   17.7050 C.3       8 GLP5        0.0000 
    115 CA         73.0890   10.6425   16.5678 C.3       4 GLC5        0.0000 
    116 CA         73.2660    8.8260   17.0610 C.3       8 GLP5        0.0000 
    117 CA         73.2558   11.9925   18.6088 C.3       4 GLC5        0.0000 
    118 CA         72.7350   12.6810   16.6810 C.3      12 GLL5        0.0000 
    119 CA         73.3070   10.8740   20.1030 C.3       8 GLP5        0.0000 
    120 CA         74.9935   14.9795   18.2300 C.3       4 GLC5        0.0000 
    121 CA         75.6380   16.2730   19.2360 C.3       8 GLP5        0.0000 
    122 CA         76.3462   14.8570   15.9075 C.3       4 GLC5        0.0000 
    123 CA         75.0240   13.8310   16.9000 C.3      12 GLL5        0.0000 
    124 CA         77.5180   16.1370   15.5630 C.3       8 GLP5        0.0000 
    125 CA         75.6230   12.0452   17.0595 C.3       4 GLC5        0.0000 
    126 CA         75.3250   13.3230   15.6040 C.3      12 GLL5        0.0000 
@<TRIPOS>BOND
@<TRIPOS>SUBSTRUCTURE
     1 ALC1       22 GROUP        1 X    ALC  0     ROOT ALC X 1
     2 SEC2        1 GROUP        1 X    SEC  0     **** SEC X 2
     3 LYC4       49 GROUP        1 X    LYC  0     **** LYC X 4
     4 GLC5        7 GROUP        1 X    GLC  0     **** GLC X 6
     5 ALP1       24 GROUP        1 Y    ALP  0     ROOT ALP Y 8
     6 SEP2        3 GROUP        1 Y    SEP  0     **** SEP Y 9
     7 LYP4       51 GROUP        1 Y    LYP  0     **** LYP Y 11
     8 GLP5        9 GROUP        1 Y    GLP  0     **** GLP Y 13
     9 ALL1       23 GROUP        1 Z    ALL  0     ROOT ALL Z 15
    10 SEL2        2 GROUP        1 Z    SEL  0     **** SEL Z 16
    11 LYL4       50 GROUP        1 Z    LYL  0     **** LYL Z 18
    12 GLL5        8 GROUP        1 Z    GLL  0     **** GLL Z 20
@<TRIPOS>SET

