#    Name: 1r37_NAD_1_ligand
#    Modification time : Tue Mar 25 00:16:36 2014

@<TRIPOS>MOLECULE
1r37_NAD_1_ligand
   70    74     1     0     0
SMALL
NO_CHARGES


@<TRIPOS>ATOM
      1 PA         82.1100   11.1210   12.1880 P.3       1 NAD403      0.0000 
      2 O1A        83.0050   11.5370   13.2950 O.co2     1 NAD403      0.0000 
      3 O2A        82.3690   11.6240   10.8040 O.co2     1 NAD403      0.0000 
      4 O5B        82.0930    9.5350   12.2260 O.3       1 NAD403      0.0000 
      5 C5B        81.3640    8.7140   11.2590 C.3       1 NAD403      0.0000 
      6 C4B        82.1030    7.3980   11.1870 C.3       1 NAD403      0.0000 
      7 O4B        81.3650    6.5560   10.2150 O.3       1 NAD403      0.0000 
      8 C3B        83.5710    7.4730   10.6110 C.3       1 NAD403      0.0000 
      9 O3B        84.5260    6.9730   11.5960 O.3       1 NAD403      0.0000 
     10 C2B        83.5390    6.6560    9.3260 C.3       1 NAD403      0.0000 
     11 O2B        84.7050    6.0250    8.9120 O.3       1 NAD403      0.0000 
     12 C1B        82.3420    5.7290    9.6240 C.3       1 NAD403      0.0000 
     13 N9A        81.7780    5.1610    8.4050 N.pl3     1 NAD403      0.0000 
     14 C8A        81.5480    5.6660    7.1190 C.2       1 NAD403      0.0000 
     15 N7A        81.0090    4.7810    6.2930 N.2       1 NAD403      0.0000 
     16 C5A        80.8490    3.6370    6.9790 C.ar      1 NAD403      0.0000 
     17 C6A        80.3140    2.3060    6.6260 C.ar      1 NAD403      0.0000 
     18 N6A        79.8570    2.0110    5.4230 N.pl3     1 NAD403      0.0000 
     19 N1A        80.3290    1.3840    7.6630 N.ar      1 NAD403      0.0000 
     20 C2A        80.7760    1.6130    8.9050 C.ar      1 NAD403      0.0000 
     21 N3A        81.2950    2.8520    9.2920 N.ar      1 NAD403      0.0000 
     22 C4A        81.3150    3.8370    8.3040 C.ar      1 NAD403      0.0000 
     23 O3         80.6260   11.5340   12.5260 O.3       1 NAD403      0.0000 
     24 PN         79.8390   11.7690   13.9290 P.3       1 NAD403      0.0000 
     25 O1N        80.0540   13.1430   14.3920 O.co2     1 NAD403      0.0000 
     26 O2N        80.2480   10.6310   14.8190 O.co2     1 NAD403      0.0000 
     27 O5D        78.3070   11.6770   13.4020 O.3       1 NAD403      0.0000 
     28 C5D        77.7620   10.4340   12.8450 C.3       1 NAD403      0.0000 
     29 C4D        76.3320   10.6330   12.4860 C.3       1 NAD403      0.0000 
     30 O4D        75.5760   10.8970   13.7360 O.3       1 NAD403      0.0000 
     31 C3D        76.0170   11.8850   11.5700 C.3       1 NAD403      0.0000 
     32 O3D        75.0760   11.5390   10.5290 O.3       1 NAD403      0.0000 
     33 C2D        75.4090   12.9100   12.5440 C.3       1 NAD403      0.0000 
     34 O2D        74.6090   13.8860   11.9270 O.3       1 NAD403      0.0000 
     35 C1D        74.6440   11.9690   13.5450 C.3       1 NAD403      0.0000 
     36 N1N        74.3690   12.5340   14.8940 N.pl3     1 NAD403      0.0000 
     37 C2N        73.0890   12.2370   15.4680 C.ar      1 NAD403      0.0000 
     38 C3N        72.7350   12.6810   16.6810 C.ar      1 NAD403      0.0000 
     39 C7N        71.3780   12.3460   17.2660 C.2       1 NAD403      0.0000 
     40 O7N        70.9530   13.0540   18.1980 O.2       1 NAD403      0.0000 
     41 N7N        70.6830   11.3060   16.7830 N.am      1 NAD403      0.0000 
     42 C4N        73.6740   13.5410   17.5480 C.ar      1 NAD403      0.0000 
     43 C5N        75.0240   13.8310   16.9000 C.ar      1 NAD403      0.0000 
     44 C6N        75.3250   13.3230   15.6040 C.ar      1 NAD403      0.0000 
     45 H          81.3654    9.1728   10.2829 H         1 NAD403      0.0000 
     46 H          80.3533    8.5329   11.5891 H         1 NAD403      0.0000 
     47 H          82.1281    6.9124   12.1231 H         1 NAD403      0.0000 
     48 H          83.7428    8.5019   10.3615 H         1 NAD403      0.0000 
     49 H          83.1298    7.3642    8.5571 H         1 NAD403      0.0000 
     50 H          82.6688    4.9730   10.2946 H         1 NAD403      0.0000 
     51 H          81.7806    6.6042    6.8870 H         1 NAD403      0.0000 
     52 H          79.9131    2.7394    4.7402 H         1 NAD403      0.0000 
     53 H          79.4963    1.0860    5.3040 H         1 NAD403      0.0000 
     54 H          80.7462    0.8529    9.6297 H         1 NAD403      0.0000 
     55 H          77.8434    9.6239   13.5769 H         1 NAD403      0.0000 
     56 H          78.3235   10.1417   11.9517 H         1 NAD403      0.0000 
     57 H          75.9161    9.7718   12.0118 H         1 NAD403      0.0000 
     58 H          76.9362   12.2563   11.2164 H         1 NAD403      0.0000 
     59 H          76.2445   13.3117   13.1145 H         1 NAD403      0.0000 
     60 H          73.7718   11.6155   13.0702 H         1 NAD403      0.0000 
     61 H          72.4421   11.6542   14.8912 H         1 NAD403      0.0000 
     62 H          71.1011   10.8139   16.0195 H         1 NAD403      0.0000 
     63 H          69.8087   11.1156   17.2295 H         1 NAD403      0.0000 
     64 H          73.4311   13.8538   18.3952 H         1 NAD403      0.0000 
     65 H          75.6742   14.3872   17.4254 H         1 NAD403      0.0000 
     66 H          76.2299   13.5231   15.1778 H         1 NAD403      0.0000 
     67 H          84.3557    5.9888   11.6450 H         1 NAD403      0.0000 
     68 H          84.9563    5.4229    9.6698 H         1 NAD403      0.0000 
     69 H          75.0909   12.3149    9.8984 H         1 NAD403      0.0000 
     70 H          74.7880   13.7864   10.9483 H         1 NAD403      0.0000 
@<TRIPOS>BOND
     1    2    1 ar   
     2    3    1 ar   
     3    4    1 1    
     4   23    1 1    
     5    5    4 1    
     6    6    5 1    
     7   45    5 1    
     8   46    5 1    
     9    7    6 1    
    10    8    6 1    
    11   47    6 1    
    12   12    7 1    
    13    9    8 1    
    14   10    8 1    
    15   48    8 1    
    16   67    9 1    
    17   11   10 1    
    18   12   10 1    
    19   49   10 1    
    20   68   11 1    
    21   13   12 1    
    22   50   12 1    
    23   14   13 1    
    24   22   13 1    
    25   15   14 2    
    26   51   14 1    
    27   16   15 1    
    28   17   16 ar   
    29   22   16 ar   
    30   18   17 1    
    31   19   17 ar   
    32   52   18 1    
    33   53   18 1    
    34   20   19 ar   
    35   21   20 ar   
    36   54   20 1    
    37   22   21 ar   
    38   24   23 1    
    39   25   24 ar   
    40   26   24 ar   
    41   27   24 1    
    42   28   27 1    
    43   29   28 1    
    44   55   28 1    
    45   56   28 1    
    46   30   29 1    
    47   31   29 1    
    48   57   29 1    
    49   35   30 1    
    50   32   31 1    
    51   33   31 1    
    52   58   31 1    
    53   69   32 1    
    54   34   33 1    
    55   35   33 1    
    56   59   33 1    
    57   70   34 1    
    58   36   35 1    
    59   60   35 1    
    60   37   36 ar   
    61   44   36 ar   
    62   38   37 ar   
    63   61   37 1    
    64   39   38 1    
    65   42   38 ar   
    66   40   39 2    
    67   41   39 am   
    68   62   41 1    
    69   63   41 1    
    70   43   42 ar   
    71   64   42 1    
    72   44   43 ar   
    73   65   43 1    
    74   66   44 1    
@<TRIPOS>SUBSTRUCTURE
     1 NAD403      1 GROUP   
@<TRIPOS>SET

