#    Name: 3MHC_1_CAVITY_N1_ALL.mol2
#    Modification time : Tue Mar 11 13:39:37 2014

@<TRIPOS>MOLECULE
3MHC_1_CAVITY_N1_ALL.mol2
   94     0     6     0     0
SMALL
NO_CHARGES


@<TRIPOS>ATOM
      1 CA         -2.4238    8.0280   15.3181 C.3       5 GLY6        0.0000 
      2 CA         -1.1110    6.7557   14.2421 C.3       5 GLY6        0.0000 
      3 N           0.2019    5.4834   13.1662 N.2       2 ALA2        0.0000 
      4 CA         -1.0863    6.1859   12.8548 C.3       5 GLY6        0.0000 
      5 DU         -2.3745    6.8885   12.5433 H         6 CUB7        0.0000 
      6 N           0.2266    4.9136   11.7789 N.2       2 ALA2        0.0000 
      7 DU         -1.0616    5.6162   11.4674 H         6 CUB7        0.0000 
      8 CZ          1.5394    3.6412   10.7030 C.ar      4 PHE5        0.0000 
      9 DU         -1.0370    5.0464   10.0801 H         6 CUB7        0.0000 
     10 DU         -2.3251    5.7490    9.7686 H         6 CUB7        0.0000 
     11 O           0.2759    3.7741    9.0042 O.2       2 ALA2        0.0000 
     12 O           0.3006    3.2043    7.6168 O.2       2 ALA2        0.0000 
     13 CA         -0.9876    3.9069    7.3054 C.3       5 GLY6        0.0000 
     14 CA         -2.2758    4.6094    6.9939 C.3       5 GLY6        0.0000 
     15 CA         -3.1919    6.8315   15.7958 C.3       5 GLY6        0.0000 
     16 CA         -1.8791    5.5591   14.7199 C.3       5 GLY6        0.0000 
     17 CA         -3.1672    6.2617   14.4085 C.3       5 GLY6        0.0000 
     18 CZ         -4.4554    6.9643   14.0970 C.ar      4 PHE5        0.0000 
     19 OG         -1.8544    4.9894   13.3325 O.2       1 SER1        0.0000 
     20 DU         -3.1426    5.6919   13.0211 H         6 CUB7        0.0000 
     21 CZ         -4.4308    6.3945   12.7097 C.ar      4 PHE5        0.0000 
     22 CZ         -5.7189    7.0971   12.3982 C.ar      4 PHE5        0.0000 
     23 N          -0.5416    3.7170   12.2566 N.2       2 ALA2        0.0000 
     24 DU         -1.8297    4.4196   11.9452 H         6 CUB7        0.0000 
     25 DU         -3.1179    5.1222   11.6337 H         6 CUB7        0.0000 
     26 O          -4.4061    5.8247   11.3223 O.2       2 ALA2        0.0000 
     27 O          -5.6943    6.5273   11.0109 O.2       2 ALA2        0.0000 
     28 CZ         -0.5169    3.1473   10.8693 C.ar      4 PHE5        0.0000 
     29 DU         -1.8051    3.8498   10.5578 H         6 CUB7        0.0000 
     30 O          -3.0932    4.5524   10.2464 O.2       2 ALA2        0.0000 
     31 N          -4.3814    5.2550    9.9349 N.2       2 ALA2        0.0000 
     32 O          -0.4922    2.5775    9.4819 O.2       2 ALA2        0.0000 
     33 O          -1.7804    3.2801    9.1705 O.2       2 ALA2        0.0000 
     34 O          -3.0686    3.9826    8.8590 O.2       2 ALA2        0.0000 
     35 N          -4.3567    4.6852    8.5476 N.2       2 ALA2        0.0000 
     36 CZ         -5.2482    6.3375   15.9621 C.ar      4 PHE5        0.0000 
     37 CA         -2.6472    4.3626   15.1977 C.3       5 GLY6        0.0000 
     38 CA         -3.9354    5.0651   14.8862 C.3       5 GLY6        0.0000 
     39 CZ         -5.2235    5.7677   14.5748 C.ar      4 PHE5        0.0000 
     40 CZ         -6.5117    6.4703   14.2633 C.ar      4 PHE5        0.0000 
     41 OG         -2.6225    3.7928   13.8103 O.2       1 SER1        0.0000 
     42 DU         -3.9107    4.4954   13.4989 H         6 CUB7        0.0000 
     43 O          -5.1989    5.1980   13.1874 O.2       2 ALA2        0.0000 
     44 O          -6.4870    5.9005   12.8760 O.2       2 ALA2        0.0000 
     45 OG         -2.5978    3.2230   12.4229 O.2       1 SER1        0.0000 
     46 O          -3.8860    3.9256   12.1115 O.2       2 ALA2        0.0000 
     47 O          -5.1742    4.6282   11.8001 O.2       2 ALA2        0.0000 
     48 OG         -1.2850    1.9507   11.3470 O.2       1 SER1        0.0000 
     49 O          -2.5732    2.6533   11.0356 O.2       2 ALA2        0.0000 
     50 O          -3.8614    3.3558   10.7241 O.2       2 ALA2        0.0000 
     51 N          -5.1495    4.0584   10.4127 N.2       2 ALA2        0.0000 
     52 O          -1.2603    1.3809    9.9597 O.2       2 ALA2        0.0000 
     53 CA         -6.0163    5.1409   16.4399 C.3       5 GLY6        0.0000 
     54 OG         -3.4153    3.1660   15.6754 O.2       1 SER1        0.0000 
     55 CA         -4.7035    3.8686   15.3640 C.3       5 GLY6        0.0000 
     56 O          -5.9916    4.5712   15.0525 O.2       2 ALA2        0.0000 
     57 CA         -7.2798    5.2737   14.7411 C.3       5 GLY6        0.0000 
     58 O          -4.6788    3.2988   13.9766 O.2       2 ALA2        0.0000 
     59 O          -5.9670    4.0014   13.6652 O.2       2 ALA2        0.0000 
     60 OG         -3.3660    2.0265   12.9007 O.2       1 SER1        0.0000 
     61 O          -4.6541    2.7291   12.5892 O.2       2 ALA2        0.0000 
     62 OG         -2.0531    0.7541   11.8248 O.2       1 SER1        0.0000 
     63 OG         -3.3413    1.4567   11.5133 O.2       1 SER1        0.0000 
     64 N          -4.6295    2.1593   11.2019 N.2       2 ALA2        0.0000 
     65 CA         -2.0284    0.1844   10.4374 C.3       5 GLY6        0.0000 
     66 O          -3.3166    0.8869   10.1260 O.2       2 ALA2        0.0000 
     67 O          -4.6048    1.5895    9.8145 O.2       2 ALA2        0.0000 
     68 CA         -4.2081    2.5392   17.5405 C.3       5 GLY6        0.0000 
     69 CA         -5.4963    3.2418   17.2291 C.3       5 GLY6        0.0000 
     70 CA         -6.7844    3.9444   16.9176 C.3       5 GLY6        0.0000 
     71 OG         -4.1834    1.9695   16.1532 O.2       1 SER1        0.0000 
     72 CA         -5.4716    2.6720   15.8417 C.3       5 GLY6        0.0000 
     73 CA         -6.7598    3.3746   15.5303 C.3       5 GLY6        0.0000 
     74 OG         -4.1587    1.3997   14.7658 O.2       1 SER1        0.0000 
     75 N          -5.4469    2.1023   14.4544 N.2       2 ALA2        0.0000 
     76 O          -6.7351    2.8048   14.1429 O.2       2 ALA2        0.0000 
     77 OG         -4.1341    0.8299   13.3784 O.2       1 SER1        0.0000 
     78 N          -5.4222    1.5325   13.0670 N.2       2 ALA2        0.0000 
     79 CA         -2.8212   -0.4424   12.3025 C.3       5 GLY6        0.0000 
     80 N          -4.1094    0.2602   11.9911 N.2       2 ALA2        0.0000 
     81 O          -5.3976    0.9627   11.6796 O.2       2 ALA2        0.0000 
     82 CA         -2.7966   -1.0122   10.9152 C.3       5 GLY6        0.0000 
     83 CA         -4.0847   -0.3096   10.6037 C.3       5 GLY6        0.0000 
     84 O          -5.3729    0.3930   10.2923 O.2       2 ALA2        0.0000 
     85 O          -4.9762    1.3427   18.0183 O.2       2 ALA2        0.0000 
     86 CA         -6.2644    2.0452   17.7068 C.3       5 GLY6        0.0000 
     87 CA         -7.5525    2.7478   17.3954 C.3       5 GLY6        0.0000 
     88 OD1        -4.9515    0.7729   16.6309 O.3       3 ASP3        0.0000 
     89 OD1        -6.2397    1.4755   16.3195 O.3       3 ASP3        0.0000 
     90 CA         -7.5279    2.1780   16.0080 C.3       5 GLY6        0.0000 
     91 OD1        -4.9022   -0.3666   13.8562 O.3       3 ASP3        0.0000 
     92 CA         -3.5893   -1.6390   12.7803 C.3       5 GLY6        0.0000 
     93 N          -4.8775   -0.9364   12.4688 N.2       2 ALA2        0.0000 
     94 CA         -4.8528   -1.5062   11.0815 C.3       5 GLY6        0.0000 
@<TRIPOS>BOND
@<TRIPOS>SUBSTRUCTURE
     1 SER1       19 GROUP   
     2 ALA2        3 GROUP   
     3 ASP3       88 GROUP   
     4 PHE5        8 GROUP   
     5 GLY6        1 GROUP   
     6 CUB7        5 GROUP   
@<TRIPOS>SET

