#    Name: 3mhc_ARZ_1_INTS_M
#    Modification time : Mon Mar 24 23:13:04 2014

@<TRIPOS>MOLECULE
3mhc_ARZ_1_INTS_M
   32     0    12     0     0
SMALL
NO_CHARGES


@<TRIPOS>ATOM
      1 O          -4.4645   -1.1765   16.8615 O.2       1 ALC1        0.0000 
      2 O          -5.3240   -0.3420   16.1320 O.2       9 ALL1        0.0000 
      3 O          -3.6050   -2.0110   17.5910 O.2       5 ALP1        0.0000 
      4 Zn         -6.0010   -0.9560   15.6790 Zn        3 ZIC7        0.0000 
      5 Zn         -5.3240   -0.3420   16.1320 Zn       11 ZIL7        0.0000 
      6 Zn         -6.6780   -1.5700   15.2260 Zn        7 ZIP7        0.0000 
      7 N          -7.1450    4.9165   12.6215 N.am      2 SEC2        0.0000 
      8 N          -6.4720    5.7780   13.4580 N.am     10 SEL2        0.0000 
      9 N          -7.8180    4.0550   11.7850 N.am      6 SEP2        0.0000 
     10 N          -3.9880    0.7650   18.5255 N.am      2 SEC2        0.0000 
     11 N          -5.2590    1.1530   17.9920 N.am     10 SEL2        0.0000 
     12 N          -2.7170    0.3770   19.0590 N.am      6 SEP2        0.0000 
     13 CA         -8.1185    6.4575   11.3540 C.3       4 GLC5        0.0000 
     14 CA         -6.5030    7.6170   11.7280 C.3      12 GLL5        0.0000 
     15 CA         -9.7340    5.2980   10.9800 C.3       8 GLP5        0.0000 
     16 N          -2.4975    1.8990   15.1130 N.am      2 SEC2        0.0000 
     17 N          -3.7320    2.3670   15.6680 N.am     10 SEL2        0.0000 
     18 N          -1.2630    1.4310   14.5580 N.am      6 SEP2        0.0000 
     19 CA         -7.8250    3.4265   14.9630 C.3       4 GLC5        0.0000 
     20 CA         -5.8590    3.4430   14.9650 C.3      12 GLL5        0.0000 
     21 CA         -9.7910    3.4100   14.9610 C.3       8 GLP5        0.0000 
     22 CA         -5.0400    4.2725   16.6595 C.3       4 GLC5        0.0000 
     23 CA         -4.2210    5.1020   18.3540 C.3       8 GLP5        0.0000 
     24 CA         -5.9170    9.2700   12.5570 C.3       4 GLC5        0.0000 
     25 CA         -6.6230    8.6120   10.6140 C.3      12 GLL5        0.0000 
     26 CA         -5.2110    9.9280   14.5000 C.3       8 GLP5        0.0000 
     27 CA         -4.8083    9.1626   13.0001 C.3       4 GLC5        0.0000 
     28 CA         -5.4640    9.3840   10.8290 C.3      12 GLL5        0.0000 
     29 CA         -7.8871    9.3887   11.3159 C.3       4 GLC5        0.0000 
     30 CA         -9.5010   10.4700   11.4070 C.3       8 GLP5        0.0000 
     31 CA         -5.9132    8.0858   13.4365 C.3       4 GLC5        0.0000 
     32 CA         -5.9650    8.9280   15.0830 C.3       8 GLP5        0.0000 
@<TRIPOS>BOND
@<TRIPOS>SUBSTRUCTURE
     1 ALC1        1 GROUP        1 X    ALC  0     ROOT ALC X 1
     2 SEC2        7 GROUP        1 X    SEC  0     **** SEC X 2
     3 ZIC7        4 GROUP        1 X    ZIC  0     **** ZIC X 5
     4 GLC5       13 GROUP        1 X    GLC  0     **** GLC X 6
     5 ALP1        3 GROUP        1 Y    ALP  0     ROOT ALP Y 8
     6 SEP2        9 GROUP        1 Y    SEP  0     **** SEP Y 9
     7 ZIP7        6 GROUP        1 Y    ZIP  0     **** ZIP Y 12
     8 GLP5       15 GROUP        1 Y    GLP  0     **** GLP Y 13
     9 ALL1        2 GROUP        1 Z    ALL  0     ROOT ALL Z 15
    10 SEL2        8 GROUP        1 Z    SEL  0     **** SEL Z 16
    11 ZIL7        5 GROUP        1 Z    ZIL  0     **** ZIL Z 19
    12 GLL5       14 GROUP        1 Z    GLL  0     **** GLL Z 20
@<TRIPOS>SET

