#    Name: 3mhc_ARZ_1_ligand
#    Modification time : Mon Mar 24 23:13:04 2014

@<TRIPOS>MOLECULE
3mhc_ARZ_1_ligand
   39    42     1     0     0
SMALL
NO_CHARGES


@<TRIPOS>ATOM
      1 NAA        -5.3240   -0.3420   16.1320 N.pl3     1 ARZ263      0.0000 
      2 OAB        -6.4720    5.7780   13.4580 O.2       1 ARZ263      0.0000 
      3 OAC        -5.2590    1.1530   17.9920 O.2       1 ARZ263      0.0000 
      4 OAD        -7.1990    1.1260   16.5130 O.2       1 ARZ263      0.0000 
      5 CAE        -3.9290    8.1600    9.7660 C.3       1 ARZ263      0.0000 
      6 CAF        -6.2900    7.9740    9.2340 C.3       1 ARZ263      0.0000 
      7 CAG        -5.4640    9.3840   10.8290 C.3       1 ARZ263      0.0000 
      8 CAH        -4.8280    6.4280   10.5470 C.3       1 ARZ263      0.0000 
      9 CAI        -3.9970    7.6910   12.0380 C.3       1 ARZ263      0.0000 
     10 CAJ        -6.5030    7.6170   11.7280 C.3       1 ARZ263      0.0000 
     11 NAK        -3.5310    3.5300   14.8100 N.2       1 ARZ263      0.0000 
     12 NAL        -3.7320    2.3670   15.6680 N.2       1 ARZ263      0.0000 
     13 NAM        -4.1090    5.2460   13.6150 N.am      1 ARZ263      0.0000 
     14 SAN        -5.8590    3.4430   14.9650 S.3       1 ARZ263      0.0000 
     15 CAO        -5.3300    5.9360   13.1980 C.2       1 ARZ263      0.0000 
     16 CAP        -4.6410    4.2220   14.3480 C.2       1 ARZ263      0.0000 
     17 CAQ        -5.0800    2.2610   15.7990 C.2       1 ARZ263      0.0000 
     18 CAR        -4.9730    7.1910    9.3070 C.3       1 ARZ263      0.0000 
     19 CAS        -4.1640    8.8230   11.0960 C.3       1 ARZ263      0.0000 
     20 CAT        -6.6230    8.6120   10.6140 C.3       1 ARZ263      0.0000 
     21 CAU        -5.2200    6.8700   11.8520 C.3       1 ARZ263      0.0000 
     22 SAV        -5.8480    0.8850   16.6140 S.o2      1 ARZ263      0.0000 
     23 H          -4.6621   -0.8009   16.7247 H         1 ARZ263      0.0000 
     24 H          -3.8046    8.9554    8.9874 H         1 ARZ263      0.0000 
     25 H          -2.9383    7.6386    9.7969 H         1 ARZ263      0.0000 
     26 H          -7.0961    7.3046    8.9570 H         1 ARZ263      0.0000 
     27 H          -6.2027    8.7644    8.4977 H         1 ARZ263      0.0000 
     28 H          -5.3442   10.1301    9.9359 H         1 ARZ263      0.0000 
     29 H          -5.6876   10.1616   11.6740 H         1 ARZ263      0.0000 
     30 H          -3.7079    6.0798   10.6034 H         1 ARZ263      0.0000 
     31 H          -5.3158    5.3764   10.3587 H         1 ARZ263      0.0000 
     32 H          -3.9439    8.0520   13.0471 H         1 ARZ263      0.0000 
     33 H          -3.1256    7.1197   11.7817 H         1 ARZ263      0.0000 
     34 H          -7.3469    6.8767   11.6377 H         1 ARZ263      0.0000 
     35 H          -6.7118    8.1439   12.7011 H         1 ARZ263      0.0000 
     36 H          -3.2751    5.4803   13.4126 H         1 ARZ263      0.0000 
     37 H          -4.6909    6.7166    8.5000 H         1 ARZ263      0.0000 
     38 H          -3.4123    9.5487   11.1959 H         1 ARZ263      0.0000 
     39 H          -7.4693    9.1257   10.6021 H         1 ARZ263      0.0000 
@<TRIPOS>BOND
     1   22    1 1    
     2   23    1 1    
     3   15    2 2    
     4   22    3 2    
     5   22    4 2    
     6   18    5 1    
     7   19    5 1    
     8   24    5 1    
     9   25    5 1    
    10   18    6 1    
    11   20    6 1    
    12   26    6 1    
    13   27    6 1    
    14   19    7 1    
    15   20    7 1    
    16   28    7 1    
    17   29    7 1    
    18   18    8 1    
    19   21    8 1    
    20   30    8 1    
    21   31    8 1    
    22   19    9 1    
    23   21    9 1    
    24   32    9 1    
    25   33    9 1    
    26   20   10 1    
    27   21   10 1    
    28   34   10 1    
    29   35   10 1    
    30   12   11 1    
    31   16   11 2    
    32   17   12 2    
    33   15   13 am   
    34   16   13 1    
    35   36   13 1    
    36   16   14 1    
    37   17   14 1    
    38   21   15 1    
    39   22   17 1    
    40   37   18 1    
    41   38   19 1    
    42   39   20 1    
@<TRIPOS>SUBSTRUCTURE
     1 ARZ263      1 GROUP   
@<TRIPOS>SET

