#    Name: 3bgv_SAH_3_INTS_M
#    Modification time : Mon Mar 24 19:32:00 2014

@<TRIPOS>MOLECULE
3bgv_SAH_3_INTS_M
   69     0    12     0     0
SMALL
NO_CHARGES


@<TRIPOS>ATOM
      1 O           5.4525   35.1375   66.8275 O.2       1 ALC1        0.0000 
      2 O           4.4100   36.2110   66.8910 O.2       9 ALL1        0.0000 
      3 O           6.4950   34.0640   66.7640 O.2       5 ALP1        0.0000 
      4 O           4.1600   36.6020   65.6280 O.2       1 ALC1        0.0000 
      5 O           3.9100   36.9930   64.3650 O.2       5 ALP1        0.0000 
      6 O           3.6295   35.6540   67.9845 O.2       1 ALC1        0.0000 
      7 O           2.8490   35.0970   69.0780 O.2       5 ALP1        0.0000 
      8 CA          7.7560   36.3765   68.6630 C.3       4 GLC5        0.0000 
      9 CA          6.6100   37.4490   67.3080 C.3      12 GLL5        0.0000 
     10 CA          8.9020   35.3040   70.0180 C.3       8 GLP5        0.0000 
     11 CA          5.5690   39.0025   64.4065 C.3       4 GLC5        0.0000 
     12 CA          6.6320   38.2280   66.0040 C.3      12 GLL5        0.0000 
     13 CA          4.5060   39.7770   62.8090 C.3       8 GLP5        0.0000 
     14 CA          6.3390   36.5705   64.7500 C.3       4 GLC5        0.0000 
     15 CA          6.0460   34.9130   63.4960 C.3       8 GLP5        0.0000 
     16 NZ          2.5470   39.1565   68.4175 N.4       3 LYC4        0.0000 
     17 NZ          3.3890   38.5890   67.6020 N.4      11 LYL4        0.0000 
     18 NZ          1.7050   39.7240   69.2330 N.4       7 LYP4        0.0000 
     19 N           2.5470   39.1565   68.4175 N.am      2 SEC2        0.0000 
     20 N           3.3890   38.5890   67.6020 N.am     10 SEL2        0.0000 
     21 N           1.7050   39.7240   69.2330 N.am      6 SEP2        0.0000 
     22 NZ          3.2220   39.3890   69.1770 N.4       3 LYC4        0.0000 
     23 NZ          4.7390   39.0540   69.1210 N.4      11 LYL4        0.0000 
     24 CA          9.3160   37.5225   62.5850 C.3       4 GLC5        0.0000 
     25 CA          8.6120   37.4090   64.3880 C.3      12 GLL5        0.0000 
     26 CA         10.0200   37.6360   60.7820 C.3       8 GLP5        0.0000 
     27 O          11.2850   34.3155   66.9380 O.2       1 ALC1        0.0000 
     28 O          10.5850   35.8390   66.9390 O.2       9 ALL1        0.0000 
     29 O          11.9850   32.7920   66.9370 O.2       5 ALP1        0.0000 
     30 O          10.2485   34.5455   67.1905 O.2       1 ALC1        0.0000 
     31 O           9.9120   33.2520   67.4420 O.2       5 ALP1        0.0000 
     32 O          12.3305   33.9360   66.1570 O.2       1 ALC1        0.0000 
     33 O          12.6760   35.0800   65.3770 O.2       9 ALL1        0.0000 
     34 CA          8.8625   33.2420   65.0055 C.3       4 GLC5        0.0000 
     35 CA         10.5510   34.4580   64.2410 C.3      12 GLL5        0.0000 
     36 CA          7.1740   32.0260   65.7700 C.3       8 GLP5        0.0000 
     37 CA          8.8135   33.8490   63.0530 C.3       4 GLC5        0.0000 
     38 CA          7.0760   33.2400   61.8650 C.3       8 GLP5        0.0000 
     39 CA         11.0170   33.4295   59.9520 C.3       4 GLC5        0.0000 
     40 CA         11.3670   32.0410   61.6630 C.3      12 GLL5        0.0000 
     41 CA         10.6670   34.8180   58.2410 C.3       8 GLP5        0.0000 
     42 CA         12.7055   30.5790   62.6320 C.3       4 GLC5        0.0000 
     43 CA         11.3390   30.7200   61.2690 C.3      12 GLL5        0.0000 
     44 CA         14.0720   30.4380   63.9950 C.3       8 GLP5        0.0000 
     45 O          12.5590   29.0955   59.7575 O.2       1 ALC1        0.0000 
     46 O          11.8580   30.4080   60.0770 O.2       9 ALL1        0.0000 
     47 O          13.2600   27.7830   59.4380 O.2       5 ALP1        0.0000 
     48 N          10.9460   28.1980   61.8280 N.am      2 SEC2        0.0000 
     49 N          10.7970   29.7480   62.1220 N.am     10 SEL2        0.0000 
     50 N          11.0950   26.6480   61.5340 N.am      6 SEP2        0.0000 
     51 CA          8.7285   31.0515   64.5640 C.3       4 GLC5        0.0000 
     52 CA         10.2830   30.0770   63.3580 C.3      12 GLL5        0.0000 
     53 CA         10.4475   30.0460   65.3950 C.3       4 GLC5        0.0000 
     54 CA         10.6120   30.0150   67.4320 C.3       8 GLP5        0.0000 
     55 CA         12.1775   30.2575   63.6765 C.3       4 GLC5        0.0000 
     56 CA          9.4570   28.4605   62.4800 C.3       4 GLC5        0.0000 
     57 CA          8.6310   26.8440   61.6020 C.3       8 GLP5        0.0000 
     58 N          11.3975   30.7580   64.8260 N.am      2 SEC2        0.0000 
     59 N          10.2950   31.4090   63.7450 N.am     10 SEL2        0.0000 
     60 N          12.5000   30.1070   65.9070 N.am      6 SEP2        0.0000 
     61 CA          7.4740   35.8387   64.0923 C.3       4 GLC5        0.0000 
     62 CA          9.1920   36.1200   64.9890 C.3      12 GLL5        0.0000 
     63 CA         12.5727   33.4940   64.2357 C.3       4 GLC5        0.0000 
     64 CA         14.1150   31.9830   64.0020 C.3       8 GLP5        0.0000 
     65 CA         12.6065   32.0922   63.1432 C.3       4 GLC5        0.0000 
     66 CA         10.8290   32.3620   62.9060 C.3      12 GLL5        0.0000 
     67 CA          9.0870   32.7208   62.0747 C.3       4 GLC5        0.0000 
     68 CA          9.8705   30.7477   60.2580 C.3       4 GLC5        0.0000 
     69 CA          8.3880   30.1150   59.0500 C.3       8 GLP5        0.0000 
@<TRIPOS>BOND
@<TRIPOS>SUBSTRUCTURE
     1 ALC1        1 GROUP        1 X    ALC  0     ROOT ALC X 1
     2 SEC2       19 GROUP        1 X    SEC  0     **** SEC X 2
     3 LYC4       16 GROUP        1 X    LYC  0     **** LYC X 4
     4 GLC5        8 GROUP        1 X    GLC  0     **** GLC X 6
     5 ALP1        3 GROUP        1 Y    ALP  0     ROOT ALP Y 8
     6 SEP2       21 GROUP        1 Y    SEP  0     **** SEP Y 9
     7 LYP4       18 GROUP        1 Y    LYP  0     **** LYP Y 11
     8 GLP5       10 GROUP        1 Y    GLP  0     **** GLP Y 13
     9 ALL1        2 GROUP        1 Z    ALL  0     ROOT ALL Z 15
    10 SEL2       20 GROUP        1 Z    SEL  0     **** SEL Z 16
    11 LYL4       17 GROUP        1 Z    LYL  0     **** LYL Z 18
    12 GLL5        9 GROUP        1 Z    GLL  0     **** GLL Z 20
@<TRIPOS>SET

