#    Name: 3bgv_SAH_3_ligand
#    Modification time : Mon Mar 24 19:32:00 2014

@<TRIPOS>MOLECULE
3bgv_SAH_3_ligand
   46    48     1     0     0
SMALL
NO_CHARGES


@<TRIPOS>ATOM
      1 N           4.4100   36.2110   66.8910 N.4       1 SAH315      0.0000 
      2 CA          5.2160   37.0780   67.8160 C.3       1 SAH315      0.0000 
      3 CB          6.6100   37.4490   67.3080 C.3       1 SAH315      0.0000 
      4 CG          6.6320   38.2280   66.0040 C.3       1 SAH315      0.0000 
      5 SD          8.3170   38.7210   65.6190 S.3       1 SAH315      0.0000 
      6 C           4.4230   38.3160   68.1900 C.2       1 SAH315      0.0000 
      7 O           3.3890   38.5890   67.6020 O.co2     1 SAH315      0.0000 
      8 OXT         4.7390   39.0540   69.1210 O.co2     1 SAH315      0.0000 
      9 C5'         8.6120   37.4090   64.3880 C.3       1 SAH315      0.0000 
     10 C4'         9.1920   36.1200   64.9890 C.3       1 SAH315      0.0000 
     11 O4'         9.3160   35.1040   64.0120 O.3       1 SAH315      0.0000 
     12 C3'        10.5720   36.3350   65.6020 C.3       1 SAH315      0.0000 
     13 O3'        10.5850   35.8390   66.9390 O.3       1 SAH315      0.0000 
     14 C2'        11.5100   35.5520   64.6980 C.3       1 SAH315      0.0000 
     15 O2'        12.6760   35.0800   65.3770 O.3       1 SAH315      0.0000 
     16 C1'        10.5510   34.4580   64.2410 C.3       1 SAH315      0.0000 
     17 N9         10.9870   33.7260   63.0410 N.pl3     1 SAH315      0.0000 
     18 C8         11.6090   34.2220   61.8850 C.2       1 SAH315      0.0000 
     19 N7         11.8230   33.1740   61.0510 N.2       1 SAH315      0.0000 
     20 C5         11.3670   32.0410   61.6630 C.ar      1 SAH315      0.0000 
     21 C6         11.3390   30.7200   61.2690 C.ar      1 SAH315      0.0000 
     22 N6         11.8580   30.4080   60.0770 N.pl3     1 SAH315      0.0000 
     23 N1         10.7970   29.7480   62.1220 N.ar      1 SAH315      0.0000 
     24 C2         10.2830   30.0770   63.3580 C.ar      1 SAH315      0.0000 
     25 N3         10.2950   31.4090   63.7450 N.ar      1 SAH315      0.0000 
     26 C4         10.8290   32.3620   62.9060 C.ar      1 SAH315      0.0000 
     27 H           5.3593   36.5067   68.7684 H         1 SAH315      0.0000 
     28 H           7.1998   36.5196   67.1832 H         1 SAH315      0.0000 
     29 H           7.1257   38.0401   68.0903 H         1 SAH315      0.0000 
     30 H           6.1219   39.1586   66.0538 H         1 SAH315      0.0000 
     31 H           6.3584   37.6492   65.1561 H         1 SAH315      0.0000 
     32 H           9.2761   37.8931   63.6947 H         1 SAH315      0.0000 
     33 H           7.6355   37.2775   63.9576 H         1 SAH315      0.0000 
     34 H           8.5281   35.7956   65.7927 H         1 SAH315      0.0000 
     35 H          10.8076   37.3664   65.5285 H         1 SAH315      0.0000 
     36 H          11.7114   36.1710   63.8478 H         1 SAH315      0.0000 
     37 H          10.4432   33.7618   65.0802 H         1 SAH315      0.0000 
     38 H          11.8293   35.1336   61.7390 H         1 SAH315      0.0000 
     39 H          12.2524   29.4927   59.9947 H         1 SAH315      0.0000 
     40 H          11.8052   31.1178   59.3747 H         1 SAH315      0.0000 
     41 H           9.9019   29.3609   63.9764 H         1 SAH315      0.0000 
     42 H           4.8646   35.3391   66.7089 H         1 SAH315      0.0000 
     43 H           3.5099   35.9984   67.2713 H         1 SAH315      0.0000 
     44 H           4.2577   36.6524   66.0067 H         1 SAH315      0.0000 
     45 H          10.3175   34.8786   66.8612 H         1 SAH315      0.0000 
     46 H          12.3697   34.2784   65.8904 H         1 SAH315      0.0000 
@<TRIPOS>BOND
     1    2    1 1    
     2   42    1 1    
     3   43    1 1    
     4   44    1 1    
     5    3    2 1    
     6    6    2 1    
     7   27    2 1    
     8    4    3 1    
     9   28    3 1    
    10   29    3 1    
    11    5    4 1    
    12   30    4 1    
    13   31    4 1    
    14    9    5 1    
    15    7    6 ar   
    16    8    6 ar   
    17   10    9 1    
    18   32    9 1    
    19   33    9 1    
    20   11   10 1    
    21   12   10 1    
    22   34   10 1    
    23   16   11 1    
    24   13   12 1    
    25   14   12 1    
    26   35   12 1    
    27   45   13 1    
    28   15   14 1    
    29   16   14 1    
    30   36   14 1    
    31   46   15 1    
    32   17   16 1    
    33   37   16 1    
    34   18   17 1    
    35   26   17 1    
    36   19   18 2    
    37   38   18 1    
    38   20   19 1    
    39   21   20 ar   
    40   26   20 ar   
    41   22   21 1    
    42   23   21 ar   
    43   39   22 1    
    44   40   22 1    
    45   24   23 ar   
    46   25   24 ar   
    47   41   24 1    
    48   26   25 ar   
@<TRIPOS>SUBSTRUCTURE
     1 SAH315      1 GROUP   
@<TRIPOS>SET

