#    Name: 4h96_14Q_1_INTS_M
#    Modification time : Tue Mar 25 00:43:09 2014

@<TRIPOS>MOLECULE
4h96_14Q_1_INTS_M
   58     0     9     0     0
SMALL
NO_CHARGES


@<TRIPOS>ATOM
      1 CA        -11.3925   15.4920    6.4360 C.3       3 GLC5        0.0000 
      2 CA        -12.1370   15.6670    4.6730 C.3       9 GLL5        0.0000 
      3 CA        -10.6480   15.3170    8.1990 C.3       6 GLP5        0.0000 
      4 CA        -13.7195   14.7790    4.3870 C.3       3 GLC5        0.0000 
      5 CA        -15.3020   13.8910    4.1010 C.3       6 GLP5        0.0000 
      6 N         -14.4165   18.2780    5.4835 N.am      2 SEC2        0.0000 
      7 N         -14.3740   18.0050    4.1140 N.am      8 SEL2        0.0000 
      8 N         -14.4590   18.5510    6.8530 N.am      5 SEP2        0.0000 
      9 CA        -17.4970   17.8325    2.9715 C.3       3 GLC5        0.0000 
     10 CA        -15.5750   18.3860    3.4970 C.3       9 GLL5        0.0000 
     11 CA        -19.4190   17.2790    2.4460 C.3       6 GLP5        0.0000 
     12 CA        -16.5445   19.7885    2.2515 C.3       3 GLC5        0.0000 
     13 CA        -17.5140   21.1910    1.0060 C.3       6 GLP5        0.0000 
     14 CA        -15.1830   20.2795    4.1455 C.3       3 GLC5        0.0000 
     15 CA        -14.7910   22.1730    4.7940 C.3       6 GLP5        0.0000 
     16 O         -15.5165   18.7170    5.5370 O.2       1 ALC1        0.0000 
     17 O         -16.5740   18.8830    4.2210 O.2       7 ALL1        0.0000 
     18 O         -14.4590   18.5510    6.8530 O.2       4 ALP1        0.0000 
     19 O         -16.6015   18.8675    5.6000 O.2       1 ALC1        0.0000 
     20 O         -16.6290   18.8520    6.9790 O.2       4 ALP1        0.0000 
     21 O         -16.3050   18.2140   -0.2285 O.2       1 ALC1        0.0000 
     22 O         -14.8080   17.5830    0.0400 O.2       7 ALL1        0.0000 
     23 O         -17.8020   18.8450   -0.4970 O.2       4 ALP1        0.0000 
     24 O         -14.2505   17.2520   -1.2475 O.2       1 ALC1        0.0000 
     25 O         -13.6930   16.9210   -2.5350 O.2       4 ALP1        0.0000 
     26 CA        -13.9980   15.5815    1.4615 C.3       3 GLC5        0.0000 
     27 CA        -12.4010   16.8050    1.1780 C.3       9 GLL5        0.0000 
     28 CA        -15.5950   14.3580    1.7450 C.3       6 GLP5        0.0000 
     29 CA        -10.1075   15.8800   -2.2565 C.3       3 GLC5        0.0000 
     30 CA        -10.4240   15.8070   -0.3550 C.3       9 GLL5        0.0000 
     31 CA         -9.7910   15.9530   -4.1580 C.3       6 GLP5        0.0000 
     32 CA         -9.7295   14.1120   -1.4240 C.3       3 GLC5        0.0000 
     33 CA         -9.0350   12.4170   -2.4930 C.3       6 GLP5        0.0000 
     34 CA        -11.0250   17.5930   -1.1740 C.3       3 GLC5        0.0000 
     35 CA        -11.6260   19.3790   -1.9930 C.3       6 GLP5        0.0000 
     36 CA         -5.4995   13.1525    1.3870 C.3       3 GLC5        0.0000 
     37 CA         -6.9270   14.6850    1.9240 C.3       9 GLL5        0.0000 
     38 CA         -4.0720   11.6200    0.8500 C.3       6 GLP5        0.0000 
     39 CA        -10.2995   11.2100    6.8560 C.3       3 GLC5        0.0000 
     40 CA         -9.4480    9.5620    5.6310 C.3       9 GLL5        0.0000 
     41 CA        -11.1510   12.8580    8.0810 C.3       6 GLP5        0.0000 
     42 CA         -8.6700   14.5495    6.6535 C.3       3 GLC5        0.0000 
     43 CA         -8.1480   13.7870    4.6620 C.3       9 GLL5        0.0000 
     44 CA         -9.1920   15.3120    8.6450 C.3       6 GLP5        0.0000 
     45 CA        -11.1350   18.5033    3.2600 C.3       3 GLC5        0.0000 
     46 CA        -12.0420   17.0950    4.1320 C.3       9 GLL5        0.0000 
     47 CA         -9.5940   19.7200    2.7740 C.3       6 GLP5        0.0000 
     48 CA        -10.7702   18.1487    1.8053 C.3       3 GLC5        0.0000 
     49 CA        -12.0848   18.1223    0.0342 C.3       3 GLC5        0.0000 
     50 CA        -12.2230   19.6670   -0.7680 C.3       6 GLP5        0.0000 
     51 CA         -8.4890   13.8473   -0.3843 C.3       3 GLC5        0.0000 
     52 CA         -9.1880   15.4090    0.4580 C.3       9 GLL5        0.0000 
     53 CA         -7.7310   12.7210   -1.7680 C.3       6 GLP5        0.0000 
     54 CA         -7.5503   14.2293   -0.6468 C.3       3 GLC5        0.0000 
     55 CA         -7.9360   15.9150    0.1070 C.3       9 GLL5        0.0000 
     56 CA         -7.6415   13.5755    0.1665 C.3       3 GLC5        0.0000 
     57 CA         -9.7808   12.5512    6.8600 C.3       3 GLC5        0.0000 
     58 CA         -8.2710   12.9190    5.7470 C.3       9 GLL5        0.0000 
@<TRIPOS>BOND
@<TRIPOS>SUBSTRUCTURE
     1 ALC1       16 GROUP        1 X    ALC  0     ROOT ALC X 1
     2 SEC2        6 GROUP        1 X    SEC  0     **** SEC X 2
     3 GLC5        1 GROUP        1 X    GLC  0     **** GLC X 6
     4 ALP1       18 GROUP        1 Y    ALP  0     ROOT ALP Y 8
     5 SEP2        8 GROUP        1 Y    SEP  0     **** SEP Y 9
     6 GLP5        3 GROUP        1 Y    GLP  0     **** GLP Y 13
     7 ALL1       17 GROUP        1 Z    ALL  0     ROOT ALL Z 15
     8 SEL2        7 GROUP        1 Z    SEL  0     **** SEL Z 16
     9 GLL5        2 GROUP        1 Z    GLL  0     **** GLL Z 20
@<TRIPOS>SET

