#    Name: 4h96_14Q_1_ligand
#    Modification time : Tue Mar 25 00:43:09 2014

@<TRIPOS>MOLECULE
4h96_14Q_1_ligand
   52    55     1     0     0
SMALL
NO_CHARGES


@<TRIPOS>ATOM
      1 CAY       -12.1370   15.6670    4.6730 C.3       1 14Q202      0.0000 
      2 CAH       -12.0420   17.0950    4.1320 C.3       1 14Q202      0.0000 
      3 C4        -13.3100   17.4780    3.3600 C.ar      1 14Q202      0.0000 
      4 N3        -14.3740   18.0050    4.1140 N.ar      1 14Q202      0.0000 
      5 C2        -15.5750   18.3860    3.4970 C.ar      1 14Q202      0.0000 
      6 NAG       -16.5740   18.8830    4.2210 N.pl3     1 14Q202      0.0000 
      7 N1        -15.7180   18.2400    2.1130 N.ar      1 14Q202      0.0000 
      8 C6        -14.6600   17.7160    1.3560 C.ar      1 14Q202      0.0000 
      9 NAI       -14.8080   17.5830    0.0400 N.pl3     1 14Q202      0.0000 
     10 C5        -13.4660   17.3380    1.9760 C.ar      1 14Q202      0.0000 
     11 CAJ       -12.4010   16.8050    1.1780 C.1       1 14Q202      0.0000 
     12 CAK       -11.4920   16.3500    0.4950 C.1       1 14Q202      0.0000 
     13 CAL       -10.4240   15.8070   -0.3550 C.3       1 14Q202      0.0000 
     14 CAM        -9.1880   15.4090    0.4580 C.ar      1 14Q202      0.0000 
     15 CAR        -9.3060   14.5380    1.5410 C.ar      1 14Q202      0.0000 
     16 CAN        -7.9360   15.9150    0.1070 C.ar      1 14Q202      0.0000 
     17 CAO        -6.8030   15.5600    0.8420 C.ar      1 14Q202      0.0000 
     18 OAZ        -5.5770   16.0550    0.4970 O.3       1 14Q202      0.0000 
     19 CBA        -5.2680   17.2900    1.1710 C.3       1 14Q202      0.0000 
     20 CAP        -6.9270   14.6850    1.9240 C.ar      1 14Q202      0.0000 
     21 CAQ        -8.1770   14.1750    2.2780 C.ar      1 14Q202      0.0000 
     22 CAS        -8.3010   13.3070    3.3600 C.ar      1 14Q202      0.0000 
     23 CAX        -8.5800   11.9560    3.1460 C.ar      1 14Q202      0.0000 
     24 CAW        -8.7050   11.0870    4.2300 C.ar      1 14Q202      0.0000 
     25 OBB        -8.9680    9.7540    4.2950 O.3       1 14Q202      0.0000 
     26 CBC        -9.4480    9.5620    5.6310 C.3       1 14Q202      0.0000 
     27 OBD        -8.7180   10.5310    6.3940 O.3       1 14Q202      0.0000 
     28 CAV        -8.5500   11.5700    5.5310 C.ar      1 14Q202      0.0000 
     29 CAU        -8.2710   12.9190    5.7470 C.ar      1 14Q202      0.0000 
     30 CAT        -8.1480   13.7870    4.6620 C.ar      1 14Q202      0.0000 
     31 H         -11.1826   17.1711    3.4674 H         1 14Q202      0.0000 
     32 H         -11.9074   17.7859    4.9630 H         1 14Q202      0.0000 
     33 H         -17.1764   19.5303    3.7539 H         1 14Q202      0.0000 
     34 H         -16.6326   18.5646    5.1672 H         1 14Q202      0.0000 
     35 H         -14.0455   17.1581   -0.4478 H         1 14Q202      0.0000 
     36 H         -15.6684   17.9200   -0.3423 H         1 14Q202      0.0000 
     37 H         -10.1139   16.5476   -1.1074 H         1 14Q202      0.0000 
     38 H         -10.7764   14.9174   -0.8983 H         1 14Q202      0.0000 
     39 H         -10.2277   14.1614    1.7982 H         1 14Q202      0.0000 
     40 H          -7.8468   16.5515   -0.6955 H         1 14Q202      0.0000 
     41 H          -6.0927   14.4157    2.4620 H         1 14Q202      0.0000 
     42 H          -8.6934   11.6016    2.1883 H         1 14Q202      0.0000 
     43 H          -9.2316    8.5602    5.9763 H         1 14Q202      0.0000 
     44 H         -10.5113    9.7515    5.6877 H         1 14Q202      0.0000 
     45 H          -8.1562   13.2733    6.7036 H         1 14Q202      0.0000 
     46 H          -7.9444   14.7815    4.8208 H         1 14Q202      0.0000 
     47 H         -11.3136   15.4050    5.1764 H         1 14Q202      0.0000 
     48 H         -12.9099   15.5573    5.2979 H         1 14Q202      0.0000 
     49 H         -12.2566   14.9988    3.9387 H         1 14Q202      0.0000 
     50 H          -4.3675   17.6393    0.9119 H         1 14Q202      0.0000 
     51 H          -5.9327   18.0060    0.9575 H         1 14Q202      0.0000 
     52 H          -5.2648   17.1799    2.1649 H         1 14Q202      0.0000 
@<TRIPOS>BOND
     1    2    1 1    
     2   47    1 1    
     3   48    1 1    
     4   49    1 1    
     5    3    2 1    
     6   31    2 1    
     7   32    2 1    
     8    4    3 ar   
     9   10    3 ar   
    10    5    4 ar   
    11    6    5 1    
    12    7    5 ar   
    13   33    6 1    
    14   34    6 1    
    15    8    7 ar   
    16    9    8 1    
    17   10    8 ar   
    18   35    9 1    
    19   36    9 1    
    20   11   10 1    
    21   12   11 3    
    22   13   12 1    
    23   14   13 1    
    24   37   13 1    
    25   38   13 1    
    26   15   14 ar   
    27   16   14 ar   
    28   21   15 ar   
    29   39   15 1    
    30   17   16 ar   
    31   40   16 1    
    32   18   17 1    
    33   20   17 ar   
    34   19   18 1    
    35   50   19 1    
    36   51   19 1    
    37   52   19 1    
    38   21   20 ar   
    39   41   20 1    
    40   22   21 1    
    41   23   22 ar   
    42   30   22 ar   
    43   24   23 ar   
    44   42   23 1    
    45   25   24 1    
    46   28   24 ar   
    47   26   25 1    
    48   27   26 1    
    49   43   26 1    
    50   44   26 1    
    51   28   27 1    
    52   29   28 ar   
    53   30   29 ar   
    54   45   29 1    
    55   46   30 1    
@<TRIPOS>SUBSTRUCTURE
     1 14Q202      1 GROUP   
@<TRIPOS>SET

