#    Name: 2r4f_RIE_1_INTS_M
#    Modification time : Mon Mar 24 23:07:54 2014

@<TRIPOS>MOLECULE
2r4f_RIE_1_INTS_M
   93     0    12     0     0
SMALL
NO_CHARGES


@<TRIPOS>ATOM
      1 CA         77.9500    8.7420   -2.7525 C.3       4 GLC5        0.0000 
      2 CA         78.9040    6.9250   -2.8790 C.3      12 GLL5        0.0000 
      3 CA         76.9960   10.5590   -2.6260 C.3       8 GLP5        0.0000 
      4 CA         79.8620    4.4920    0.4140 C.3       4 GLC5        0.0000 
      5 CA         78.5790    5.7710   -0.6750 C.3      12 GLL5        0.0000 
      6 CA         81.1450    3.2130    1.5030 C.3       8 GLP5        0.0000 
      7 CA         79.3855    7.0515    0.6630 C.3       4 GLC5        0.0000 
      8 CA         80.1920    8.3320    2.0010 C.3       8 GLP5        0.0000 
      9 CA         82.9080    9.5335   -2.8355 C.3       4 GLC5        0.0000 
     10 CA         80.9610    9.9660   -3.6050 C.3      12 GLL5        0.0000 
     11 CA         84.8550    9.1010   -2.0660 C.3       8 GLP5        0.0000 
     12 CA         78.9785   10.2625   -3.1155 C.3       4 GLC5        0.0000 
     13 N          80.2545   13.0280   -5.0935 N.am      2 SEC2        0.0000 
     14 N          79.1490   12.3740   -5.4810 N.am     10 SEL2        0.0000 
     15 N          81.3600   13.6820   -4.7060 N.am      6 SEP2        0.0000 
     16 CA         76.6675   12.4805   -7.1470 C.3       4 GLC5        0.0000 
     17 CA         77.7850   11.2370   -8.6200 C.3      12 GLL5        0.0000 
     18 CA         75.5500   13.7240   -5.6740 C.3       8 GLP5        0.0000 
     19 CA         83.4420    8.9100   -5.2495 C.3       4 GLC5        0.0000 
     20 CA         81.6150    8.3370   -5.4120 C.3      12 GLL5        0.0000 
     21 CA         85.2690    9.4830   -5.0870 C.3       8 GLP5        0.0000 
     22 CA         71.8290    4.0860   -3.6025 C.3       4 GLC5        0.0000 
     23 CA         72.7240    5.2660   -5.2570 C.3      12 GLL5        0.0000 
     24 CA         70.9340    2.9060   -1.9480 C.3       8 GLP5        0.0000 
     25 N          81.1940    4.1670   -1.5020 N.am      2 SEC2        0.0000 
     26 N          80.3890    5.1760   -2.1370 N.am     10 SEL2        0.0000 
     27 N          81.9990    3.1580   -0.8670 N.am      6 SEP2        0.0000 
     28 N          81.3090    5.8455   -1.2820 N.am      2 SEC2        0.0000 
     29 N          82.2290    6.5150   -0.4270 N.am      6 SEP2        0.0000 
     30 O          81.0745    4.8770   -3.1865 O.2       1 ALC1        0.0000 
     31 O          80.3890    5.1760   -2.1370 O.2       9 ALL1        0.0000 
     32 O          81.7600    4.5780   -4.2360 O.2       5 ALP1        0.0000 
     33 N          75.4355    4.0110   -1.9270 N.am      2 SEC2        0.0000 
     34 N          76.4760    4.5520   -0.8200 N.am     10 SEL2        0.0000 
     35 N          74.3950    3.4700   -3.0340 N.am      6 SEP2        0.0000 
     36 N          74.9840    4.0895   -0.8760 N.am      2 SEC2        0.0000 
     37 N          73.4920    3.6270   -0.9320 N.am      6 SEP2        0.0000 
     38 O          77.1470    3.4955   -0.3195 O.2       1 ALC1        0.0000 
     39 O          76.4760    4.5520   -0.8200 O.2       9 ALL1        0.0000 
     40 O          77.8180    2.4390    0.1810 O.2       5 ALP1        0.0000 
     41 CA         76.4010    4.0605    1.3315 C.3       4 GLC5        0.0000 
     42 CA         76.7500    6.1750    0.9520 C.3      12 GLL5        0.0000 
     43 CA         76.0520    1.9460    1.7110 C.3       8 GLP5        0.0000 
     44 CA         78.4710    7.2535    1.4765 C.3       4 GLC5        0.0000 
     45 NZ         73.8510    8.0975    1.5135 N.4       3 LYC4        0.0000 
     46 NZ         74.8970    7.6570    0.7310 N.4      11 LYL4        0.0000 
     47 NZ         72.8050    8.5380    2.2960 N.4       7 LYP4        0.0000 
     48 N          73.4660    6.8420    0.8715 N.am      2 SEC2        0.0000 
     49 N          74.8970    7.6570    0.7310 N.am     10 SEL2        0.0000 
     50 N          72.0350    6.0270    1.0120 N.am      6 SEP2        0.0000 
     51 N          73.8510    8.0975    1.5135 N.am      2 SEC2        0.0000 
     52 N          72.8050    8.5380    2.2960 N.am      6 SEP2        0.0000 
     53 NZ         75.1050    5.8255    3.0540 N.4       3 LYC4        0.0000 
     54 NZ         74.5220    5.6800    1.6130 N.4      11 LYL4        0.0000 
     55 NZ         75.6880    5.9710    4.4950 N.4       7 LYP4        0.0000 
     56 NZ         73.6635    7.1090    1.9545 N.4       3 LYC4        0.0000 
     57 N          73.2785    5.8535    1.3125 N.am      2 SEC2        0.0000 
     58 N          74.5220    5.6800    1.6130 N.am     10 SEL2        0.0000 
     59 CA         77.9417    9.6182   -3.8905 C.3       4 GLC5        0.0000 
     60 CA         78.4760    8.0650   -5.0140 C.3      12 GLL5        0.0000 
     61 CA         81.8625    9.1427   -7.0883 C.3       4 GLC5        0.0000 
     62 CA         80.7470    9.5420   -5.0530 C.3      12 GLL5        0.0000 
     63 CA         82.5440    9.3460   -8.9440 C.3       8 GLP5        0.0000 
     64 CA         81.6750   11.4665   -4.8570 C.3       4 GLC5        0.0000 
     65 CA         82.4960   13.1790   -5.3850 C.3       8 GLP5        0.0000 
     66 CA         81.9973   11.1150   -9.1303 C.3       4 GLC5        0.0000 
     67 CA         80.8230   12.7310   -9.0530 C.3      12 GLL5        0.0000 
     68 CA         81.4645   13.2067   -7.0758 C.3       4 GLC5        0.0000 
     69 CA         84.1672   13.6118   -9.5068 C.3       4 GLC5        0.0000 
     70 CA         82.0780   13.0370   -9.5800 C.3      12 GLL5        0.0000 
     71 CA         86.0190   13.5310   -9.4550 C.3       8 GLP5        0.0000 
     72 CA         82.8723   14.0017   -7.6893 C.3       4 GLC5        0.0000 
     73 CA         82.5530   14.3480   -9.5370 C.3      12 GLL5        0.0000 
     74 CA         83.4290   14.3110   -5.8200 C.3       8 GLP5        0.0000 
     75 CA         76.3612    9.1020   -3.7320 C.3       4 GLC5        0.0000 
     76 CA         76.1650    7.6350   -5.3830 C.3      12 GLL5        0.0000 
     77 CA         73.5197    8.5945   -3.4678 C.3       4 GLC5        0.0000 
     78 CA         75.2880    7.6550   -4.2930 C.3      12 GLL5        0.0000 
     79 CA         72.3260    9.9270   -2.6730 C.3       8 GLP5        0.0000 
     80 CA         82.2910   14.7578   -7.2620 C.3       4 GLC5        0.0000 
     81 CA         80.5270   15.0500   -8.4400 C.3      12 GLL5        0.0000 
     82 CA         80.8800   17.1502   -8.0795 C.3       4 GLC5        0.0000 
     83 CA         81.7790   15.3590   -8.9680 C.3      12 GLL5        0.0000 
     84 CA         80.6070   19.0960   -7.4550 C.3       8 GLP5        0.0000 
     85 CA         76.8533   13.7447   -7.0200 C.3       4 GLC5        0.0000 
     86 CA         78.6950   13.4720   -7.9060 C.3      12 GLL5        0.0000 
     87 CA         72.8173    4.1329   -6.2731 C.3       4 GLC5        0.0000 
     88 CA         73.8270    6.0300   -5.2970 C.3      12 GLL5        0.0000 
     89 CA         72.1490    2.6290   -6.9930 C.3       8 GLP5        0.0000 
     90 CA         71.8162    6.6659   -4.8719 C.3       4 GLC5        0.0000 
     91 CA         70.2790    7.4740   -4.7330 C.3       8 GLP5        0.0000 
     92 CA         77.4638    7.9603   -0.0566 C.3       4 GLC5        0.0000 
     93 CA         77.6420    9.9350   -0.2960 C.3       8 GLP5        0.0000 
@<TRIPOS>BOND
@<TRIPOS>SUBSTRUCTURE
     1 ALC1       30 GROUP        1 X    ALC  0     ROOT ALC X 1
     2 SEC2       13 GROUP        1 X    SEC  0     **** SEC X 2
     3 LYC4       45 GROUP        1 X    LYC  0     **** LYC X 4
     4 GLC5        1 GROUP        1 X    GLC  0     **** GLC X 6
     5 ALP1       32 GROUP        1 Y    ALP  0     ROOT ALP Y 8
     6 SEP2       15 GROUP        1 Y    SEP  0     **** SEP Y 9
     7 LYP4       47 GROUP        1 Y    LYP  0     **** LYP Y 11
     8 GLP5        3 GROUP        1 Y    GLP  0     **** GLP Y 13
     9 ALL1       31 GROUP        1 Z    ALL  0     ROOT ALL Z 15
    10 SEL2       14 GROUP        1 Z    SEL  0     **** SEL Z 16
    11 LYL4       46 GROUP        1 Z    LYL  0     **** LYL Z 18
    12 GLL5        2 GROUP        1 Z    GLL  0     **** GLL Z 20
@<TRIPOS>SET

