#    Name: 2r4f_RIE_1_ligand
#    Modification time : Mon Mar 24 23:07:54 2014

@<TRIPOS>MOLECULE
2r4f_RIE_1_ligand
   73    75     1     0     0
SMALL
NO_CHARGES


@<TRIPOS>ATOM
      1 N3         77.2520    8.4100   -5.4310 N.pl3     1 RIE876      0.0000 
      2 C4         78.4760    8.0650   -5.0140 C.2       1 RIE876      0.0000 
      3 C5         79.2990    9.2900   -5.2960 C.2       1 RIE876      0.0000 
      4 C6         80.7470    9.5420   -5.0530 C.3       1 RIE876      0.0000 
      5 C7         78.9000    6.7480   -4.3960 C.3       1 RIE876      0.0000 
      6 C8         78.9040    6.9250   -2.8790 C.3       1 RIE876      0.0000 
      7 C10        78.5790    5.7710   -0.6750 C.3       1 RIE876      0.0000 
      8 C13        80.9610    9.9660   -3.6050 C.3       1 RIE876      0.0000 
      9 C15        74.6670    5.9850   -6.4020 C.ar      1 RIE876      0.0000 
     10 C17        80.8230   12.7310   -9.0530 C.ar      1 RIE876      0.0000 
     11 C20        82.0780   13.0370   -9.5800 C.ar      1 RIE876      0.0000 
     12 C21        75.2880    7.6550   -4.2930 C.ar      1 RIE876      0.0000 
     13 C24        74.1390    6.8690   -4.2320 C.ar      1 RIE876      0.0000 
     14 C26        80.5270   15.0500   -8.4400 C.ar      1 RIE876      0.0000 
     15 O2         79.1490   12.3740   -5.4810 O.2       1 RIE876      0.0000 
     16 C3         78.6650   11.6430   -6.3330 C.2       1 RIE876      0.0000 
     17 N2         78.3910   12.0680   -7.5770 N.am      1 RIE876      0.0000 
     18 C1         78.6950   13.4720   -7.9060 C.3       1 RIE876      0.0000 
     19 C16        77.6180   14.0590   -8.8260 C.3       1 RIE876      0.0000 
     20 C32        80.0430   13.7380   -8.4800 C.ar      1 RIE876      0.0000 
     21 C23        81.7790   15.3590   -8.9680 C.ar      1 RIE876      0.0000 
     22 C29        82.5530   14.3480   -9.5370 C.ar      1 RIE876      0.0000 
     23 C14        77.7850   11.2370   -8.6200 C.3       1 RIE876      0.0000 
     24 C2         78.3300   10.2530   -5.9080 C.2       1 RIE876      0.0000 
     25 C12        81.6150    8.3370   -5.4120 C.3       1 RIE876      0.0000 
     26 C27        76.1650    7.6350   -5.3830 C.ar      1 RIE876      0.0000 
     27 C18        75.8100    6.7820   -6.4350 C.ar      1 RIE876      0.0000 
     28 C30        73.8270    6.0300   -5.2970 C.ar      1 RIE876      0.0000 
     29 F1         72.7240    5.2660   -5.2570 F         1 RIE876      0.0000 
     30 N4         77.1070    9.6900   -5.9560 N.2       1 RIE876      0.0000 
     31 C9         79.0210    5.6010   -2.1290 C.3       1 RIE876      0.0000 
     32 O4         80.3890    5.1760   -2.1370 O.3       1 RIE876      0.0000 
     33 C11        77.0630    5.8210   -0.4980 C.3       1 RIE876      0.0000 
     34 O3         76.4760    4.5520   -0.8200 O.3       1 RIE876      0.0000 
     35 C35        76.7500    6.1750    0.9520 C.3       1 RIE876      0.0000 
     36 C36        75.2880    6.5290    1.1060 C.2       1 RIE876      0.0000 
     37 O6         74.8970    7.6570    0.7310 O.co2     1 RIE876      0.0000 
     38 O7         74.5220    5.6800    1.6130 O.co2     1 RIE876      0.0000 
     39 H          81.0648   10.3835   -5.6872 H         1 RIE876      0.0000 
     40 H          79.8922    6.4908   -4.7281 H         1 RIE876      0.0000 
     41 H          78.1980    5.9757   -4.6635 H         1 RIE876      0.0000 
     42 H          77.9776    7.4290   -2.5749 H         1 RIE876      0.0000 
     43 H          79.7436    7.5729   -2.5964 H         1 RIE876      0.0000 
     44 H          79.0172    6.6982   -0.2749 H         1 RIE876      0.0000 
     45 H          78.9819    4.9373   -0.0797 H         1 RIE876      0.0000 
     46 H          74.4489    5.3679   -7.1926 H         1 RIE876      0.0000 
     47 H          80.4726   11.7671   -9.0860 H         1 RIE876      0.0000 
     48 H          82.6527   12.2965  -10.0000 H         1 RIE876      0.0000 
     49 H          75.5067    8.2890   -3.4893 H         1 RIE876      0.0000 
     50 H          73.5302    6.9093   -3.4099 H         1 RIE876      0.0000 
     51 H          79.9514   15.7918   -8.0163 H         1 RIE876      0.0000 
     52 H          78.6142   14.0744   -6.9567 H         1 RIE876      0.0000 
     53 H          82.1285   16.3207   -8.9387 H         1 RIE876      0.0000 
     54 H          83.4791   14.5700   -9.9271 H         1 RIE876      0.0000 
     55 H          76.4276    6.7433   -7.2763 H         1 RIE876      0.0000 
     56 H          78.3851    4.8797   -2.5971 H         1 RIE876      0.0000 
     57 H          76.6757    6.6055   -1.1245 H         1 RIE876      0.0000 
     58 H          77.3653    7.0219    1.2532 H         1 RIE876      0.0000 
     59 H          76.9890    5.3227    1.5868 H         1 RIE876      0.0000 
     60 H          81.9259   10.1389   -3.4074 H         1 RIE876      0.0000 
     61 H          80.4621   10.8045   -3.3859 H         1 RIE876      0.0000 
     62 H          80.6515    9.2646   -2.9630 H         1 RIE876      0.0000 
     63 H          77.8076   15.0130   -9.0582 H         1 RIE876      0.0000 
     64 H          77.5507   13.5555   -9.6874 H         1 RIE876      0.0000 
     65 H          76.7131   14.0350   -8.4010 H         1 RIE876      0.0000 
     66 H          77.6652   11.7423   -9.4746 H         1 RIE876      0.0000 
     67 H          78.3459   10.4360   -8.8293 H         1 RIE876      0.0000 
     68 H          76.8830   10.9006   -8.3495 H         1 RIE876      0.0000 
     69 H          82.5847    8.5145   -5.2439 H         1 RIE876      0.0000 
     70 H          81.3680    7.5289   -4.8773 H         1 RIE876      0.0000 
     71 H          81.5254    8.0889   -6.3766 H         1 RIE876      0.0000 
     72 H          80.6122    5.0407   -3.1023 H         1 RIE876      0.0000 
     73 H          77.0828    3.8737   -0.4056 H         1 RIE876      0.0000 
@<TRIPOS>BOND
     1    2    1 1    
     2   26    1 1    
     3   30    1 1    
     4    3    2 2    
     5    5    2 1    
     6    4    3 1    
     7   24    3 1    
     8    8    4 1    
     9   25    4 1    
    10   39    4 1    
    11    6    5 1    
    12   40    5 1    
    13   41    5 1    
    14   31    6 1    
    15   42    6 1    
    16   43    6 1    
    17   31    7 1    
    18   33    7 1    
    19   44    7 1    
    20   45    7 1    
    21   60    8 1    
    22   61    8 1    
    23   62    8 1    
    24   27    9 ar   
    25   28    9 ar   
    26   46    9 1    
    27   11   10 ar   
    28   20   10 ar   
    29   47   10 1    
    30   22   11 ar   
    31   48   11 1    
    32   13   12 ar   
    33   26   12 ar   
    34   49   12 1    
    35   28   13 ar   
    36   50   13 1    
    37   20   14 ar   
    38   21   14 ar   
    39   51   14 1    
    40   16   15 2    
    41   17   16 am   
    42   24   16 1    
    43   18   17 1    
    44   23   17 1    
    45   19   18 1    
    46   20   18 1    
    47   52   18 1    
    48   63   19 1    
    49   64   19 1    
    50   65   19 1    
    51   22   21 ar   
    52   53   21 1    
    53   54   22 1    
    54   66   23 1    
    55   67   23 1    
    56   68   23 1    
    57   30   24 2    
    58   69   25 1    
    59   70   25 1    
    60   71   25 1    
    61   27   26 ar   
    62   55   27 1    
    63   29   28 1    
    64   32   31 1    
    65   56   31 1    
    66   72   32 1    
    67   34   33 1    
    68   35   33 1    
    69   57   33 1    
    70   73   34 1    
    71   36   35 1    
    72   58   35 1    
    73   59   35 1    
    74   37   36 ar   
    75   38   36 ar   
@<TRIPOS>SUBSTRUCTURE
     1 RIE876      1 GROUP   
@<TRIPOS>SET

