#    Name: 2y60_M8F_1_INTS_M
#    Modification time : Tue Mar 25 07:41:19 2014

@<TRIPOS>MOLECULE
2y60_M8F_1_INTS_M
   62     0     9     0     0
SMALL
NO_CHARGES


@<TRIPOS>ATOM
      1 NZ         19.4755   36.0800    6.0000 N.4       2 LYC4        0.0000 
      2 NZ         18.1310   36.2100    6.4710 N.4       8 LYL4        0.0000 
      3 NZ         21.0310   35.4210    4.3240 N.4       5 LYP4        0.0000 
      4 N          19.4755   36.0800    6.0000 N.am      1 SEC2        0.0000 
      5 N          18.1310   36.2100    6.4710 N.am      7 SEL2        0.0000 
      6 N          20.8200   35.9500    5.5290 N.am      4 SEP2        0.0000 
      7 CA         15.3030   39.8735    4.6330 C.3       3 GLC5        0.0000 
      8 CA         13.3370   39.1520    5.0980 C.3       9 GLL5        0.0000 
      9 CA         17.2690   40.5950    4.1680 C.3       6 GLP5        0.0000 
     10 CA         13.0265   41.0340    4.7650 C.3       3 GLC5        0.0000 
     11 CA         12.7160   42.9160    4.4320 C.3       6 GLP5        0.0000 
     12 CA         16.2470   34.5100    6.7750 C.3       3 GLC5        0.0000 
     13 CA         15.8400   36.3210    6.0830 C.3       9 GLL5        0.0000 
     14 CA         16.6540   32.6990    7.4670 C.3       6 GLP5        0.0000 
     15 CA         14.3835   34.8450    5.9240 C.3       3 GLC5        0.0000 
     16 CA         12.9270   33.3690    5.7650 C.3       6 GLP5        0.0000 
     17 CA         16.2560   39.0775    4.7810 C.3       3 GLC5        0.0000 
     18 CA         15.2430   37.5600    5.3940 C.3       9 GLL5        0.0000 
     19 NZ         18.6860   35.4985    3.9610 N.4       2 LYC4        0.0000 
     20 NZ         17.4090   35.8170    4.4030 N.4       8 LYL4        0.0000 
     21 N          18.6860   35.4985    3.9610 N.am      1 SEC2        0.0000 
     22 N          17.4090   35.8170    4.4030 N.am      7 SEL2        0.0000 
     23 N          19.9630   35.1800    3.5190 N.am      4 SEP2        0.0000 
     24 N          16.9320   34.7825    3.7135 N.am      1 SEC2        0.0000 
     25 N          16.4550   33.7480    3.0240 N.am      4 SEP2        0.0000 
     26 CA         10.5380   38.0900    3.5085 C.3       3 GLC5        0.0000 
     27 CA          9.4970   39.5070    4.8470 C.3       9 GLL5        0.0000 
     28 CA         11.5790   36.6730    2.1700 C.3       6 GLP5        0.0000 
     29 CA         10.5925   38.4470    1.4480 C.3       3 GLC5        0.0000 
     30 CA          9.4350   39.7730    2.0560 C.3       9 GLL5        0.0000 
     31 CA         11.7500   37.1210    0.8400 C.3       6 GLP5        0.0000 
     32 N           4.4210   38.1090    7.1590 N.am      1 SEC2        0.0000 
     33 N           5.1990   38.0860    6.0830 N.am      7 SEL2        0.0000 
     34 N           3.6430   38.1320    8.2350 N.am      4 SEP2        0.0000 
     35 CA          6.1370   34.8920    1.9040 C.3       3 GLC5        0.0000 
     36 CA          6.3810   36.6430    3.0850 C.3       9 GLL5        0.0000 
     37 CA          5.8930   33.1410    0.7230 C.3       6 GLP5        0.0000 
     38 CA          7.9635   35.1285    3.1015 C.3       3 GLC5        0.0000 
     39 CA          9.5460   33.6140    3.1180 C.3       6 GLP5        0.0000 
     40 CA          4.6415   36.6665    0.2195 C.3       3 GLC5        0.0000 
     41 CA          4.7090   38.5960    1.0480 C.3       9 GLL5        0.0000 
     42 CA          4.5740   34.7370   -0.6090 C.3       6 GLP5        0.0000 
     43 CA          2.9615   38.5255    1.2090 C.3       3 GLC5        0.0000 
     44 CA          1.2140   38.4550    1.3700 C.3       6 GLP5        0.0000 
     45 N           4.4445   35.1940    4.4515 N.am      1 SEC2        0.0000 
     46 N           4.3070   36.4440    4.9290 N.am      7 SEL2        0.0000 
     47 N           4.5820   33.9440    3.9740 N.am      4 SEP2        0.0000 
     48 CA         13.4823   36.9393    4.0782 C.3       3 GLC5        0.0000 
     49 CA         12.5660   35.8510    2.7420 C.3       6 GLP5        0.0000 
     50 CA          8.4348   41.4313    4.9607 C.3       3 GLC5        0.0000 
     51 CA          7.6140   42.8830    5.6430 C.3       6 GLP5        0.0000 
     52 CA          8.8377   41.7572    2.2535 C.3       3 GLC5        0.0000 
     53 CA          9.0140   40.4520    3.7100 C.3       9 GLL5        0.0000 
     54 CA          8.4510   43.4020    1.6240 C.3       6 GLP5        0.0000 
     55 CA          6.9932   35.6713    5.2423 C.3       3 GLC5        0.0000 
     56 CA          6.5780   37.0600    4.5360 C.3       9 GLL5        0.0000 
     57 CA          7.5070   34.4910    6.6740 C.3       6 GLP5        0.0000 
     58 CA          5.2313   40.2805    0.3488 C.3       3 GLC5        0.0000 
     59 CA          6.0700   39.2460    1.9810 C.3       9 GLL5        0.0000 
     60 CA          5.0730   41.6400   -0.8170 C.3       6 GLP5        0.0000 
     61 CA          4.0613   39.5280    2.9792 C.3       3 GLC5        0.0000 
     62 CA          2.7330   40.1350    4.4440 C.3       6 GLP5        0.0000 
@<TRIPOS>BOND
@<TRIPOS>SUBSTRUCTURE
     1 SEC2        4 GROUP        1 X    SEC  0     ROOT SEC X 2
     2 LYC4        1 GROUP        1 X    LYC  0     **** LYC X 4
     3 GLC5        7 GROUP        1 X    GLC  0     **** GLC X 6
     4 SEP2        6 GROUP        1 Y    SEP  0     ROOT SEP Y 9
     5 LYP4        3 GROUP        1 Y    LYP  0     **** LYP Y 11
     6 GLP5        9 GROUP        1 Y    GLP  0     **** GLP Y 13
     7 SEL2        5 GROUP        1 Z    SEL  0     ROOT SEL Z 16
     8 LYL4        2 GROUP        1 Z    LYL  0     **** LYL Z 18
     9 GLL5        8 GROUP        1 Z    GLL  0     **** GLL Z 20
@<TRIPOS>SET

