#    Name: 2y60_M8F_1_ligand
#    Modification time : Tue Mar 25 07:41:19 2014

@<TRIPOS>MOLECULE
2y60_M8F_1_ligand
   48    47     1     0     0
SMALL
NO_CHARGES


@<TRIPOS>ATOM
      1 C8         11.8960   39.4090    5.5180 C.2       1 M8F1332     0.0000 
      2 O9         11.6380   39.7930    6.6880 O.2       1 M8F1332     0.0000 
      3 O4         18.1310   36.2100    6.4710 O.co2     1 M8F1332     0.0000 
      4 C7         13.3370   39.1520    5.0980 C.3       1 M8F1332     0.0000 
      5 C2         17.2180   36.0640    5.5860 C.2       1 M8F1332     0.0000 
      6 C1         15.8400   36.3210    6.0830 C.3       1 M8F1332     0.0000 
      7 C5         15.2430   37.5600    5.3940 C.3       1 M8F1332     0.0000 
      8 C6         13.7710   37.8380    5.7720 C.3       1 M8F1332     0.0000 
      9 N1         15.8520   36.4780    7.6140 N.4       1 M8F1332     0.0000 
     10 O3         17.4090   35.8170    4.4030 O.co2     1 M8F1332     0.0000 
     11 N10        10.9520   39.2730    4.5840 N.am      1 M8F1332     0.0000 
     12 C11         9.4970   39.5070    4.8470 C.3       1 M8F1332     0.0000 
     13 C14         8.7330   38.1630    4.7340 C.2       1 M8F1332     0.0000 
     14 O15         9.3070   37.0560    4.5970 O.2       1 M8F1332     0.0000 
     15 C12         9.0140   40.4520    3.7100 C.3       1 M8F1332     0.0000 
     16 S13         9.4350   39.7730    2.0560 S.3       1 M8F1332     0.0000 
     17 N16         7.4170   38.2670    4.6660 N.am      1 M8F1332     0.0000 
     18 C17         6.5780   37.0600    4.5360 C.3       1 M8F1332     0.0000 
     19 C22         5.2610   37.2020    5.2290 C.2       1 M8F1332     0.0000 
     20 O24         5.1990   38.0860    6.0830 O.co2     1 M8F1332     0.0000 
     21 C18         6.3810   36.6430    3.0850 C.3       1 M8F1332     0.0000 
     22 C19         6.9270   37.6240    2.0590 C.3       1 M8F1332     0.0000 
     23 S20         6.0700   39.2460    1.9810 S.3       1 M8F1332     0.0000 
     24 C21         4.7090   38.5960    1.0480 C.3       1 M8F1332     0.0000 
     25 O23         4.3070   36.4440    4.9290 O.co2     1 M8F1332     0.0000 
     26 H          13.9651   39.9495    5.4415 H         1 M8F1332     0.0000 
     27 H          13.3923   39.0382    4.0338 H         1 M8F1332     0.0000 
     28 H          15.2093   35.4668    5.8412 H         1 M8F1332     0.0000 
     29 H          15.3083   37.4291    4.3047 H         1 M8F1332     0.0000 
     30 H          15.8465   38.4403    5.6567 H         1 M8F1332     0.0000 
     31 H          13.1552   37.0317    5.4157 H         1 M8F1332     0.0000 
     32 H          13.6923   37.9395    6.8396 H         1 M8F1332     0.0000 
     33 H          11.1716   38.9919    3.6010 H         1 M8F1332     0.0000 
     34 H           9.3354   39.9518    5.7660 H         1 M8F1332     0.0000 
     35 H           9.5119   41.3890    3.7026 H         1 M8F1332     0.0000 
     36 H           7.9578   40.5388    3.6561 H         1 M8F1332     0.0000 
     37 H           6.9098   39.1637    4.6981 H         1 M8F1332     0.0000 
     38 H           7.1159   36.2127    5.0314 H         1 M8F1332     0.0000 
     39 H           5.2992   36.4952    2.8994 H         1 M8F1332     0.0000 
     40 H           6.8601   35.6568    2.9284 H         1 M8F1332     0.0000 
     41 H           6.8352   37.2801    1.0337 H         1 M8F1332     0.0000 
     42 H           7.9516   37.9283    2.2476 H         1 M8F1332     0.0000 
     43 H          16.1993   35.6579    8.0687 H         1 M8F1332     0.0000 
     44 H          16.4294   37.2410    7.9046 H         1 M8F1332     0.0000 
     45 H          14.9360   36.6488    7.9770 H         1 M8F1332     0.0000 
     46 H           5.0192   38.0685    0.2571 H         1 M8F1332     0.0000 
     47 H           4.1371   37.9886    1.5994 H         1 M8F1332     0.0000 
     48 H           4.1157   39.3225    0.7014 H         1 M8F1332     0.0000 
@<TRIPOS>BOND
     1    2    1 2    
     2    4    1 1    
     3   11    1 am   
     4    5    3 ar   
     5    8    4 1    
     6   26    4 1    
     7   27    4 1    
     8    6    5 1    
     9   10    5 ar   
    10    7    6 1    
    11    9    6 1    
    12   28    6 1    
    13    8    7 1    
    14   29    7 1    
    15   30    7 1    
    16   31    8 1    
    17   32    8 1    
    18   43    9 1    
    19   44    9 1    
    20   45    9 1    
    21   12   11 1    
    22   33   11 1    
    23   13   12 1    
    24   15   12 1    
    25   34   12 1    
    26   14   13 2    
    27   17   13 am   
    28   16   15 1    
    29   35   15 1    
    30   36   15 1    
    31   18   17 1    
    32   37   17 1    
    33   19   18 1    
    34   21   18 1    
    35   38   18 1    
    36   20   19 ar   
    37   25   19 ar   
    38   22   21 1    
    39   39   21 1    
    40   40   21 1    
    41   23   22 1    
    42   41   22 1    
    43   42   22 1    
    44   24   23 1    
    45   46   24 1    
    46   47   24 1    
    47   48   24 1    
@<TRIPOS>SUBSTRUCTURE
     1 M8F1332     1 GROUP   
@<TRIPOS>SET

