#    Name: 3w3o_ROE_2_INTS_M
#    Modification time : Tue Mar 25 02:09:42 2014

@<TRIPOS>MOLECULE
3w3o_ROE_2_INTS_M
   55     0    12     0     0
SMALL
NO_CHARGES


@<TRIPOS>ATOM
      1 N          -3.6680  -16.2825   14.4255 N.am      2 SEC2        0.0000 
      2 N          -4.2160  -14.9180   14.5630 N.am     10 SEL2        0.0000 
      3 N          -3.1200  -17.6470   14.2880 N.am      6 SEP2        0.0000 
      4 NZ         -7.5670  -16.0880   14.9310 N.4       3 LYC4        0.0000 
      5 NZ         -6.2770  -15.7540   14.2580 N.4      11 LYL4        0.0000 
      6 NZ         -8.8570  -16.4220   15.6040 N.4       7 LYP4        0.0000 
      7 N          -5.8965  -16.9680   13.5675 N.am      2 SEC2        0.0000 
      8 N          -6.2770  -15.7540   14.2580 N.am     10 SEL2        0.0000 
      9 N          -5.5160  -18.1820   12.8770 N.am      6 SEP2        0.0000 
     10 N          -7.5670  -16.0880   14.9310 N.am      2 SEC2        0.0000 
     11 N          -8.8570  -16.4220   15.6040 N.am      6 SEP2        0.0000 
     12 CA         -7.2185  -13.2350   16.0145 C.3       4 GLC5        0.0000 
     13 CA         -6.0350  -13.4370   14.2230 C.3      12 GLL5        0.0000 
     14 CA         -8.4020  -13.0330   17.8060 C.3       8 GLP5        0.0000 
     15 O          -4.5965  -12.9530   16.3235 O.2       1 ALC1        0.0000 
     16 O          -5.6210  -12.5860   15.2850 O.2       9 ALL1        0.0000 
     17 O          -3.5720  -13.3200   17.3620 O.2       5 ALP1        0.0000 
     18 N          -4.7505  -10.9795   17.3365 N.am      2 SEC2        0.0000 
     19 N          -5.5180  -10.5190   16.1640 N.am     10 SEL2        0.0000 
     20 N          -3.9830  -11.4400   18.5090 N.am      6 SEP2        0.0000 
     21 N          -4.8710   -9.3040   15.9605 N.am      2 SEC2        0.0000 
     22 N          -4.2240   -8.0890   15.7570 N.am      6 SEP2        0.0000 
     23 O          -7.0770   -9.4875   14.2875 O.2       1 ALC1        0.0000 
     24 O          -6.7690  -10.8180   14.3160 O.2       9 ALL1        0.0000 
     25 O          -7.3850   -8.1570   14.2590 O.2       5 ALP1        0.0000 
     26 N          -9.1095  -11.2830   11.4890 N.am      2 SEC2        0.0000 
     27 N          -7.9810  -11.0640   12.4330 N.am     10 SEL2        0.0000 
     28 N         -10.2380  -11.5020   10.5450 N.am      6 SEP2        0.0000 
     29 N          -8.3945   -9.6790   12.4685 N.am      2 SEC2        0.0000 
     30 N          -8.8080   -8.2940   12.5040 N.am      6 SEP2        0.0000 
     31 CA         -6.2240  -16.1740   10.7925 C.3       4 GLC5        0.0000 
     32 CA         -5.4630  -14.1150   10.5810 C.3      12 GLL5        0.0000 
     33 CA         -6.9850  -18.2330   11.0040 C.3       8 GLP5        0.0000 
     34 CA          1.2160  -14.9350   11.6985 C.3       4 GLC5        0.0000 
     35 CA         -0.9030  -15.3410   11.6370 C.3      12 GLL5        0.0000 
     36 CA          3.3350  -14.5290   11.7600 C.3       8 GLP5        0.0000 
     37 CA         -5.6190  -17.0755   10.1720 C.3       4 GLC5        0.0000 
     38 CA         -4.2530  -15.9180    9.3400 C.3      12 GLL5        0.0000 
     39 CA         -6.6760  -16.2460    9.2310 C.3       4 GLC5        0.0000 
     40 CA         -5.3890  -15.1190    9.5690 C.3      12 GLL5        0.0000 
     41 CA         -7.9630  -17.3730    8.8930 C.3       8 GLP5        0.0000 
     42 CA         -8.0877  -15.2993   11.2368 C.3       4 GLC5        0.0000 
     43 CA         -6.6760  -13.3840   10.7580 C.3      12 GLL5        0.0000 
     44 CA         -9.1830  -16.9560   11.0470 C.3       8 GLP5        0.0000 
     45 CA         -2.8518  -16.5175   12.2157 C.3       4 GLC5        0.0000 
     46 CA         -3.1680  -14.7640   11.0870 C.3      12 GLL5        0.0000 
     47 CA         -3.1040  -18.3650   12.9710 C.3       8 GLP5        0.0000 
     48 CA         -2.5418  -13.4890    9.7207 C.3       4 GLC5        0.0000 
     49 CA         -2.4840  -12.3080    7.9810 C.3       8 GLP5        0.0000 
     50 CA         -1.9815  -17.1035   12.0613 C.3       4 GLC5        0.0000 
     51 CA         -2.8170  -17.2533   11.4740 C.3       4 GLC5        0.0000 
     52 CA         -1.9560  -16.5500    9.8690 C.3      12 GLL5        0.0000 
     53 CA         -6.6461  -13.7101    8.5436 C.3       4 GLC5        0.0000 
     54 CA         -7.5630  -12.9860    6.9680 C.3       8 GLP5        0.0000 
     55 CA         -3.4444  -13.7529    8.9845 C.3       4 GLC5        0.0000 
@<TRIPOS>BOND
@<TRIPOS>SUBSTRUCTURE
     1 ALC1       15 GROUP        1 X    ALC  0     ROOT ALC X 1
     2 SEC2        1 GROUP        1 X    SEC  0     **** SEC X 2
     3 LYC4        4 GROUP        1 X    LYC  0     **** LYC X 4
     4 GLC5       12 GROUP        1 X    GLC  0     **** GLC X 6
     5 ALP1       17 GROUP        1 Y    ALP  0     ROOT ALP Y 8
     6 SEP2        3 GROUP        1 Y    SEP  0     **** SEP Y 9
     7 LYP4        6 GROUP        1 Y    LYP  0     **** LYP Y 11
     8 GLP5       14 GROUP        1 Y    GLP  0     **** GLP Y 13
     9 ALL1       16 GROUP        1 Z    ALL  0     ROOT ALL Z 15
    10 SEL2        2 GROUP        1 Z    SEL  0     **** SEL Z 16
    11 LYL4        5 GROUP        1 Z    LYL  0     **** LYL Z 18
    12 GLL5       13 GROUP        1 Z    GLL  0     **** GLL Z 20
@<TRIPOS>SET

