#    Name: 3w3o_ROE_2_ligand
#    Modification time : Tue Mar 25 02:09:42 2014

@<TRIPOS>MOLECULE
3w3o_ROE_2_ligand
   40    42     1     0     0
SMALL
NO_CHARGES


@<TRIPOS>ATOM
      1 OAB        -4.2160  -14.9180   14.5630 O.co2     1 ROE401      0.0000 
      2 CAQ        -5.4940  -14.7740   14.3670 C.2       1 ROE401      0.0000 
      3 OAE        -6.2770  -15.7540   14.2580 O.co2     1 ROE401      0.0000 
      4 CAT        -6.0350  -13.4370   14.2230 C.2       1 ROE401      0.0000 
      5 NAN        -5.6210  -12.5860   15.2850 N.am      1 ROE401      0.0000 
      6 CAV        -5.9810  -11.2620   15.3200 C.2       1 ROE401      0.0000 
      7 OAC        -5.5180  -10.5190   16.1640 O.2       1 ROE401      0.0000 
      8 NAO        -6.7690  -10.8180   14.3160 N.am      1 ROE401      0.0000 
      9 CAW        -7.2250  -11.6190   13.2370 C.2       1 ROE401      0.0000 
     10 OAD        -7.9810  -11.0640   12.4330 O.2       1 ROE401      0.0000 
     11 CAU        -6.8920  -12.9970   13.1860 C.2       1 ROE401      0.0000 
     12 CAM        -7.3090  -13.9010   12.0950 C.3       1 ROE401      0.0000 
     13 CAL        -6.6760  -13.3840   10.7580 C.3       1 ROE401      0.0000 
     14 CAR        -5.4630  -14.1150   10.5810 C.ar      1 ROE401      0.0000 
     15 CAJ        -4.2840  -13.9280   11.3350 C.ar      1 ROE401      0.0000 
     16 CAX        -3.1680  -14.7640   11.0870 C.ar      1 ROE401      0.0000 
     17 CAI        -2.0310  -14.5760   11.8340 C.ar      1 ROE401      0.0000 
     18 CAG        -0.9030  -15.3410   11.6370 C.ar      1 ROE401      0.0000 
     19 CAS        -0.8150  -16.3430   10.6660 C.ar      1 ROE401      0.0000 
     20 OAP         0.4040  -17.0100   10.6710 O.3       1 ROE401      0.0000 
     21 CAA         0.4930  -18.1380    9.7410 C.3       1 ROE401      0.0000 
     22 CAK        -1.9560  -16.5500    9.8690 C.ar      1 ROE401      0.0000 
     23 CAY        -3.1040  -15.7330   10.0850 C.ar      1 ROE401      0.0000 
     24 CAH        -4.2530  -15.9180    9.3400 C.ar      1 ROE401      0.0000 
     25 CAF        -5.3890  -15.1190    9.5690 C.ar      1 ROE401      0.0000 
     26 H          -5.0368  -12.9940   16.0364 H         1 ROE401      0.0000 
     27 H          -7.0836   -9.8032   14.3095 H         1 ROE401      0.0000 
     28 H          -8.3822  -13.9007   11.9724 H         1 ROE401      0.0000 
     29 H          -6.9526  -14.9073   12.2600 H         1 ROE401      0.0000 
     30 H          -6.5116  -12.3244   10.8743 H         1 ROE401      0.0000 
     31 H          -7.3938  -13.5705    9.9748 H         1 ROE401      0.0000 
     32 H          -4.2350  -13.2055   12.0449 H         1 ROE401      0.0000 
     33 H          -2.0199  -13.8349   12.5702 H         1 ROE401      0.0000 
     34 H          -0.0601  -15.1694   12.2436 H         1 ROE401      0.0000 
     35 H          -1.9698  -17.2643    9.1527 H         1 ROE401      0.0000 
     36 H          -4.2899  -16.6431    8.6089 H         1 ROE401      0.0000 
     37 H          -6.2327  -15.2633    8.9664 H         1 ROE401      0.0000 
     38 H           1.3864  -18.5852    9.7840 H         1 ROE401      0.0000 
     39 H          -0.1945  -18.8370    9.9381 H         1 ROE401      0.0000 
     40 H           0.3548  -17.8499    8.7934 H         1 ROE401      0.0000 
@<TRIPOS>BOND
     1    2    1 ar   
     2    3    2 ar   
     3    4    2 1    
     4    5    4 1    
     5   11    4 2    
     6    6    5 am   
     7   26    5 1    
     8    7    6 2    
     9    8    6 am   
    10    9    8 am   
    11   27    8 1    
    12   10    9 2    
    13   11    9 1    
    14   12   11 1    
    15   13   12 1    
    16   28   12 1    
    17   29   12 1    
    18   14   13 1    
    19   30   13 1    
    20   31   13 1    
    21   15   14 ar   
    22   25   14 ar   
    23   16   15 ar   
    24   32   15 1    
    25   17   16 ar   
    26   23   16 ar   
    27   18   17 ar   
    28   33   17 1    
    29   19   18 ar   
    30   34   18 1    
    31   20   19 1    
    32   22   19 ar   
    33   21   20 1    
    34   38   21 1    
    35   39   21 1    
    36   40   21 1    
    37   23   22 ar   
    38   35   22 1    
    39   24   23 ar   
    40   25   24 ar   
    41   36   24 1    
    42   37   25 1    
@<TRIPOS>SUBSTRUCTURE
     1 ROE401      1 GROUP   
@<TRIPOS>SET

