#    Name: 4buf_F36_2_INTS_M
#    Modification time : Tue Mar 25 08:23:56 2014

@<TRIPOS>MOLECULE
4buf_F36_2_INTS_M
   44     0     9     0     0
SMALL
NO_CHARGES


@<TRIPOS>ATOM
      1 N         -53.2985  -39.5110   14.4825 N.am      2 SEC2        0.0000 
      2 N         -54.1250  -40.6600   14.1470 N.am      8 SEL2        0.0000 
      3 N         -52.4720  -38.3620   14.8180 N.am      5 SEP2        0.0000 
      4 N         -54.1855  -40.1085   12.9025 N.am      2 SEC2        0.0000 
      5 N         -54.2460  -39.5570   11.6580 N.am      5 SEP2        0.0000 
      6 O         -53.9260  -40.1950   16.7610 O.2       1 ALC1        0.0000 
      7 O         -54.4900  -41.4180   16.2420 O.2       7 ALL1        0.0000 
      8 O         -53.3620  -38.9720   17.2800 O.2       4 ALP1        0.0000 
      9 CA        -54.1290  -43.3765   12.3275 C.3       3 GLC5        0.0000 
     10 CA        -55.9430  -42.6170   13.0440 C.3       9 GLL5        0.0000 
     11 CA        -52.3150  -44.1360   11.6110 C.3       6 GLP5        0.0000 
     12 CA        -56.0175  -40.4565   12.8345 C.3       3 GLC5        0.0000 
     13 CA        -56.0920  -38.2960   12.6250 C.3       6 GLP5        0.0000 
     14 CA        -53.7160  -39.6405   22.9010 C.3       3 GLC5        0.0000 
     15 CA        -53.7890  -41.7260   23.6370 C.3       9 GLL5        0.0000 
     16 CA        -53.6430  -37.5550   22.1650 C.3       6 GLP5        0.0000 
     17 CA        -52.3785  -41.0940   24.4375 C.3       3 GLC5        0.0000 
     18 CA        -50.9680  -40.4620   25.2380 C.3       6 GLP5        0.0000 
     19 CA        -55.5198  -44.5472   19.4253 C.3       3 GLC5        0.0000 
     20 CA        -55.9050  -42.9750   19.3170 C.3       9 GLL5        0.0000 
     21 CA        -55.6180  -46.4420   19.9190 C.3       6 GLP5        0.0000 
     22 CA        -55.3847  -44.6455   20.4528 C.3       3 GLC5        0.0000 
     23 CA        -55.7250  -43.0980   20.6840 C.3       9 GLL5        0.0000 
     24 CA        -56.9567  -42.5070   21.8972 C.3       3 GLC5        0.0000 
     25 CA        -58.7620  -42.1650   22.8080 C.3       6 GLP5        0.0000 
     26 CA        -52.4558  -40.2490   19.7252 C.3       3 GLC5        0.0000 
     27 CA        -53.6130  -41.9780   20.5220 C.3       9 GLL5        0.0000 
     28 CA        -51.2160  -38.5830   19.6140 C.3       6 GLP5        0.0000 
     29 CA        -55.7114  -40.6171   18.3816 C.3       3 GLC5        0.0000 
     30 CA        -53.7780  -41.8520   19.1510 C.3       9 GLL5        0.0000 
     31 CA        -56.8230  -38.9820   17.7220 C.3       6 GLP5        0.0000 
     32 CA        -55.1388  -44.4503   15.0732 C.3       3 GLC5        0.0000 
     33 CA        -56.2950  -43.3560   15.3500 C.3       9 GLL5        0.0000 
     34 CA        -54.3080  -45.9900   15.2840 C.3       6 GLP5        0.0000 
     35 CA        -55.8098  -45.1873   14.7710 C.3       3 GLC5        0.0000 
     36 CA        -57.1760  -44.3270   14.9330 C.3       9 GLL5        0.0000 
     37 CA        -57.7593  -44.8025   11.2835 C.3       3 GLC5        0.0000 
     38 CA        -56.8520  -43.5960   12.6550 C.3       9 GLL5        0.0000 
     39 CA        -58.3690  -45.5860    9.4480 C.3       6 GLP5        0.0000 
     40 CA        -55.3528  -44.5482   14.0668 C.3       3 GLC5        0.0000 
     41 CA        -56.0228  -42.5018   11.1858 C.3       3 GLC5        0.0000 
     42 CA        -55.6480  -41.8970    9.5220 C.3       6 GLP5        0.0000 
     43 CA        -57.8291  -42.4180   12.0572 C.3       3 GLC5        0.0000 
     44 CA        -59.1120  -41.5180   11.0330 C.3       6 GLP5        0.0000 
@<TRIPOS>BOND
@<TRIPOS>SUBSTRUCTURE
     1 ALC1        6 GROUP        1 X    ALC  0     ROOT ALC X 1
     2 SEC2        1 GROUP        1 X    SEC  0     **** SEC X 2
     3 GLC5        9 GROUP        1 X    GLC  0     **** GLC X 6
     4 ALP1        8 GROUP        1 Y    ALP  0     ROOT ALP Y 8
     5 SEP2        3 GROUP        1 Y    SEP  0     **** SEP Y 9
     6 GLP5       11 GROUP        1 Y    GLP  0     **** GLP Y 13
     7 ALL1        7 GROUP        1 Z    ALL  0     ROOT ALL Z 15
     8 SEL2        2 GROUP        1 Z    SEL  0     **** SEL Z 16
     9 GLL5       10 GROUP        1 Z    GLL  0     **** GLL Z 20
@<TRIPOS>SET

