#    Name: 4buf_F36_2_ligand
#    Modification time : Tue Mar 25 08:23:56 2014

@<TRIPOS>MOLECULE
4buf_F36_2_ligand
   32    34     1     0     0
SMALL
NO_CHARGES


@<TRIPOS>ATOM
      1 O1        -54.1250  -40.6600   14.1470 O.2       1 F362162     0.0000 
      2 C13       -54.6980  -41.4540   14.9120 C.2       1 F362162     0.0000 
      3 N1        -54.4900  -41.4180   16.2420 N.am      1 F362162     0.0000 
      4 C6        -55.1430  -42.2640   17.0770 C.2       1 F362162     0.0000 
      5 C3        -54.9380  -42.3300   18.5460 C.ar      1 F362162     0.0000 
      6 C2        -55.9050  -42.9750   19.3170 C.ar      1 F362162     0.0000 
      7 C1        -55.7250  -43.0980   20.6840 C.ar      1 F362162     0.0000 
      8 O         -54.8040  -43.8120   23.2610 O.2       1 F362162     0.0000 
      9 C5        -53.6130  -41.9780   20.5220 C.ar      1 F362162     0.0000 
     10 C4        -53.7780  -41.8520   19.1510 C.ar      1 F362162     0.0000 
     11 N         -55.9930  -43.2150   16.6410 N.2       1 F362162     0.0000 
     12 C7        -56.2950  -43.3560   15.3500 C.ar      1 F362162     0.0000 
     13 C8        -55.6440  -42.4650   14.3750 C.ar      1 F362162     0.0000 
     14 C20       -54.5780  -42.6000   21.2890 C.ar      1 F362162     0.0000 
     15 C12       -57.1760  -44.3270   14.9330 C.ar      1 F362162     0.0000 
     16 C11       -57.4470  -44.4420   13.5830 C.ar      1 F362162     0.0000 
     17 C10       -56.8520  -43.5960   12.6550 C.ar      1 F362162     0.0000 
     18 C9        -55.9430  -42.6170   13.0440 C.ar      1 F362162     0.0000 
     19 CAA       -54.4150  -42.7680   22.7700 C.2       1 F362162     0.0000 
     20 C         -53.7890  -41.7260   23.6370 C.3       1 F362162     0.0000 
     21 H         -53.8121  -40.7252   16.6432 H         1 F362162     0.0000 
     22 H         -56.7463  -43.3559   18.8674 H         1 F362162     0.0000 
     23 H         -56.4458  -43.5620   21.2589 H         1 F362162     0.0000 
     24 H         -52.7605  -41.6027   20.9706 H         1 F362162     0.0000 
     25 H         -53.0482  -41.4077   18.5805 H         1 F362162     0.0000 
     26 H         -57.6233  -44.9533   15.6074 H         1 F362162     0.0000 
     27 H         -58.1066  -45.1726   13.2526 H         1 F362162     0.0000 
     28 H         -57.0903  -43.6959   11.6494 H         1 F362162     0.0000 
     29 H         -55.5041  -42.0175   12.3347 H         1 F362162     0.0000 
     30 H         -52.9678  -42.0675   24.0941 H         1 F362162     0.0000 
     31 H         -53.5180  -40.9195   23.1116 H         1 F362162     0.0000 
     32 H         -54.4141  -41.4134   24.3523 H         1 F362162     0.0000 
@<TRIPOS>BOND
     1    2    1 2    
     2    3    2 am   
     3   13    2 1    
     4    4    3 1    
     5   21    3 1    
     6    5    4 1    
     7   11    4 2    
     8    6    5 ar   
     9   10    5 ar   
    10    7    6 ar   
    11   22    6 1    
    12   14    7 ar   
    13   23    7 1    
    14   19    8 2    
    15   10    9 ar   
    16   14    9 ar   
    17   24    9 1    
    18   25   10 1    
    19   12   11 1    
    20   13   12 ar   
    21   15   12 ar   
    22   18   13 ar   
    23   19   14 1    
    24   16   15 ar   
    25   26   15 1    
    26   17   16 ar   
    27   27   16 1    
    28   18   17 ar   
    29   28   17 1    
    30   29   18 1    
    31   20   19 1    
    32   30   20 1    
    33   31   20 1    
    34   32   20 1    
@<TRIPOS>SUBSTRUCTURE
     1 F362162     1 GROUP   
@<TRIPOS>SET

