#    Name: 3zcl_5TF_1_INTS_M
#    Modification time : Tue Mar 25 02:42:58 2014

@<TRIPOS>MOLECULE
3zcl_5TF_1_INTS_M
   65     0     9     0     0
SMALL
NO_CHARGES


@<TRIPOS>ATOM
      1 CA         20.5760   80.2605    2.5420 C.3       3 GLC5        0.0000 
      2 CA         20.2660   82.0660    1.6170 C.3       9 GLL5        0.0000 
      3 CA         20.8860   78.4550    3.4670 C.3       6 GLP5        0.0000 
      4 CA         21.1715   82.6185    4.1495 C.3       3 GLC5        0.0000 
      5 CA         19.6400   82.9450    2.6970 C.3       9 GLL5        0.0000 
      6 CA         22.7030   82.2920    5.6020 C.3       6 GLP5        0.0000 
      7 CA         18.5875   85.4850    1.1830 C.3       3 GLC5        0.0000 
      8 CA         18.7390   83.9990    2.0730 C.3       9 GLL5        0.0000 
      9 CA         18.4360   86.9710    0.2930 C.3       6 GLP5        0.0000 
     10 CA         17.0210   84.4410    2.9370 C.3       3 GLC5        0.0000 
     11 CA         15.3030   84.8830    3.8010 C.3       6 GLP5        0.0000 
     12 CA         18.5535   81.3360    8.8765 C.3       3 GLC5        0.0000 
     13 CA         17.7230   81.6030    7.0940 C.3       9 GLL5        0.0000 
     14 CA         19.3840   81.0690   10.6590 C.3       6 GLP5        0.0000 
     15 CA         16.2535   81.3105    8.2845 C.3       3 GLC5        0.0000 
     16 CA         14.7840   81.0180    9.4750 C.3       6 GLP5        0.0000 
     17 N          17.3130   82.5980    9.8315 N.am      2 SEC2        0.0000 
     18 N          17.9400   83.4130    8.8210 N.am      8 SEL2        0.0000 
     19 N          16.6860   81.7830   10.8420 N.am      5 SEP2        0.0000 
     20 CA         18.0135   89.2620    7.7430 C.3       3 GLC5        0.0000 
     21 CA         18.8940   87.4150    7.6140 C.3       9 GLL5        0.0000 
     22 CA         17.1330   91.1090    7.8720 C.3       6 GLP5        0.0000 
     23 CA         21.1605   85.3815   10.1630 C.3       3 GLC5        0.0000 
     24 CA         21.7460   86.2200    8.2870 C.3       9 GLL5        0.0000 
     25 CA         20.5750   84.5430   12.0390 C.3       6 GLP5        0.0000 
     26 O          24.1535   86.5340    8.8715 O.2       1 ALC1        0.0000 
     27 O          23.0780   86.1120    7.9810 O.2       7 ALL1        0.0000 
     28 O          25.2290   86.9560    9.7620 O.2       4 ALP1        0.0000 
     29 CA         24.2760   84.5125    7.6430 C.3       3 GLC5        0.0000 
     30 CA         23.2170   85.9280    6.6370 C.3       9 GLL5        0.0000 
     31 CA         25.3350   83.0970    8.6490 C.3       6 GLP5        0.0000 
     32 CA         22.9600   84.1100    6.1195 C.3       3 GLC5        0.0000 
     33 N          25.6865   85.4670    6.5900 N.am      2 SEC2        0.0000 
     34 N          24.4070   85.7810    5.9820 N.am      8 SEL2        0.0000 
     35 N          26.9660   85.1530    7.1980 N.am      5 SEP2        0.0000 
     36 CA         23.8540   87.4735    5.7085 C.3       3 GLC5        0.0000 
     37 CA         24.2870   85.6090    4.6190 C.3       9 GLL5        0.0000 
     38 CA         23.4210   89.3380    6.7980 C.3       6 GLP5        0.0000 
     39 CA         25.1350   84.2630    5.9500 C.3       3 GLC5        0.0000 
     40 CA         25.9830   82.9170    7.2810 C.3       6 GLP5        0.0000 
     41 CA         21.1130   87.5665    4.4805 C.3       3 GLC5        0.0000 
     42 CA         21.8650   85.7380    4.6430 C.3       9 GLL5        0.0000 
     43 CA         20.3610   89.3950    4.3180 C.3       6 GLP5        0.0000 
     44 CA         17.3645   79.6318    6.9565 C.3       3 GLC5        0.0000 
     45 CA         17.9750   81.3380    5.7900 C.3       9 GLL5        0.0000 
     46 CA         16.8800   77.7930    7.4710 C.3       6 GLP5        0.0000 
     47 CA         19.8425   81.9352    6.8005 C.3       3 GLC5        0.0000 
     48 CA         21.8360   82.4000    7.1590 C.3       6 GLP5        0.0000 
     49 CA         18.6033   87.6852    5.6555 C.3       3 GLC5        0.0000 
     50 CA         19.4830   86.1620    6.9600 C.3       9 GLL5        0.0000 
     51 CA         18.0180   88.5820    4.0240 C.3       6 GLP5        0.0000 
     52 CA         19.5067   87.1673    9.1095 C.3       3 GLC5        0.0000 
     53 CA         19.8250   87.5460   10.9320 C.3       6 GLP5        0.0000 
     54 CA         17.2223   86.1287    6.7050 C.3       3 GLC5        0.0000 
     55 CA         15.2560   85.4690    6.1230 C.3       6 GLP5        0.0000 
     56 CA         20.9120   87.7037    5.4532 C.3       3 GLC5        0.0000 
     57 CA         20.9930   86.1060    7.1160 C.3       9 GLL5        0.0000 
     58 CA         22.3953   87.7505    7.2498 C.3       3 GLC5        0.0000 
     59 CA         20.5972   86.8545    9.3168 C.3       3 GLC5        0.0000 
     60 CA         23.3029   87.3550    3.5371 C.3       3 GLC5        0.0000 
     61 CA         23.8340   89.0440    2.6210 C.3       6 GLP5        0.0000 
     62 CA         22.8205   87.5844    6.1470 C.3       3 GLC5        0.0000 
     63 CA         22.7374   83.9790    5.0276 C.3       3 GLC5        0.0000 
     64 CA         21.6492   84.2240    7.0104 C.3       3 GLC5        0.0000 
     65 CA         21.9330   85.9190    6.0610 C.3       9 GLL5        0.0000 
@<TRIPOS>BOND
@<TRIPOS>SUBSTRUCTURE
     1 ALC1       26 GROUP        1 X    ALC  0     ROOT ALC X 1
     2 SEC2       17 GROUP        1 X    SEC  0     **** SEC X 2
     3 GLC5        1 GROUP        1 X    GLC  0     **** GLC X 6
     4 ALP1       28 GROUP        1 Y    ALP  0     ROOT ALP Y 8
     5 SEP2       19 GROUP        1 Y    SEP  0     **** SEP Y 9
     6 GLP5        3 GROUP        1 Y    GLP  0     **** GLP Y 13
     7 ALL1       27 GROUP        1 Z    ALL  0     ROOT ALL Z 15
     8 SEL2       18 GROUP        1 Z    SEL  0     **** SEL Z 16
     9 GLL5        2 GROUP        1 Z    GLL  0     **** GLL Z 20
@<TRIPOS>SET

