#    Name: 3zcl_5TF_1_ligand
#    Modification time : Tue Mar 25 02:42:58 2014

@<TRIPOS>MOLECULE
3zcl_5TF_1_ligand
   43    46     1     0     0
SMALL
NO_CHARGES


@<TRIPOS>ATOM
      1 C1         20.2660   82.0660    1.6170 C.3       1 5TF1        0.0000 
      2 C2         19.6400   82.9450    2.6970 C.3       1 5TF1        0.0000 
      3 C3         18.7390   83.9990    2.0730 C.3       1 5TF1        0.0000 
      4 N4         18.8560   82.1120    3.6070 N.pl3     1 5TF1        0.0000 
      5 C5         18.6130   82.4170    4.9340 C.2       1 5TF1        0.0000 
      6 C6         17.9750   81.3380    5.7900 C.2       1 5TF1        0.0000 
      7 C7         17.7230   81.6030    7.0940 C.2       1 5TF1        0.0000 
      8 C8         18.0590   82.8750    7.6300 C.2       1 5TF1        0.0000 
      9 N9         17.9400   83.4130    8.8210 N.2       1 5TF1        0.0000 
     10 N10        18.4450   84.6960    8.7510 N.2       1 5TF1        0.0000 
     11 C11        18.8620   84.9140    7.5150 C.2       1 5TF1        0.0000 
     12 C12        19.4830   86.1620    6.9600 C.3       1 5TF1        0.0000 
     13 C13        18.8940   87.4150    7.6140 C.3       1 5TF1        0.0000 
     14 C14        20.9930   86.1060    7.1160 C.2       1 5TF1        0.0000 
     15 C15        21.7460   86.2200    8.2870 C.2       1 5TF1        0.0000 
     16 N16        23.0780   86.1120    7.9810 N.pl3     1 5TF1        0.0000 
     17 C17        23.2170   85.9280    6.6370 C.ar      1 5TF1        0.0000 
     18 N18        24.4070   85.7810    5.9820 N.ar      1 5TF1        0.0000 
     19 C19        24.2870   85.6090    4.6190 C.ar      1 5TF1        0.0000 
     20 C20        23.0700   85.5790    3.9080 C.ar      1 5TF1        0.0000 
     21 C21        21.8650   85.7380    4.6430 C.ar      1 5TF1        0.0000 
     22 C22        21.9330   85.9190    6.0610 C.ar      1 5TF1        0.0000 
     23 N23        18.6360   83.7850    6.7640 N.pl3     1 5TF1        0.0000 
     24 N24        18.9260   83.6050    5.4400 N.2       1 5TF1        0.0000 
     25 H          20.4308   83.4412    3.2342 H         1 5TF1        0.0000 
     26 H          18.4640   81.2285    3.1955 H         1 5TF1        0.0000 
     27 H          17.7711   80.4666    5.3278 H         1 5TF1        0.0000 
     28 H          17.2924   80.9085    7.7164 H         1 5TF1        0.0000 
     29 H          19.2592   86.2087    5.8873 H         1 5TF1        0.0000 
     30 H          21.3757   86.3527    9.1605 H         1 5TF1        0.0000 
     31 H          23.7996   86.1593    8.6186 H         1 5TF1        0.0000 
     32 H          25.1765   85.4883    4.0479 H         1 5TF1        0.0000 
     33 H          23.0504   85.4493    2.9109 H         1 5TF1        0.0000 
     34 H          20.9695   85.7242    4.1756 H         1 5TF1        0.0000 
     35 H          20.8168   82.6007    0.9761 H         1 5TF1        0.0000 
     36 H          20.8661   81.3681    2.0079 H         1 5TF1        0.0000 
     37 H          19.5719   81.5878    1.0789 H         1 5TF1        0.0000 
     38 H          19.2438   84.5986    1.4519 H         1 5TF1        0.0000 
     39 H          17.9968   83.5873    1.5442 H         1 5TF1        0.0000 
     40 H          18.3163   84.5835    2.7656 H         1 5TF1        0.0000 
     41 H          19.0450   87.4239    8.6025 H         1 5TF1        0.0000 
     42 H          19.3014   88.2516    7.2477 H         1 5TF1        0.0000 
     43 H          17.9070   87.4813    7.4677 H         1 5TF1        0.0000 
@<TRIPOS>BOND
     1    2    1 1    
     2   35    1 1    
     3   36    1 1    
     4   37    1 1    
     5    3    2 1    
     6    4    2 1    
     7   25    2 1    
     8   38    3 1    
     9   39    3 1    
    10   40    3 1    
    11    5    4 1    
    12   26    4 1    
    13    6    5 1    
    14   24    5 2    
    15    7    6 2    
    16   27    6 1    
    17    8    7 1    
    18   28    7 1    
    19    9    8 2    
    20   23    8 1    
    21   10    9 1    
    22   11   10 2    
    23   12   11 1    
    24   23   11 1    
    25   13   12 1    
    26   14   12 1    
    27   29   12 1    
    28   41   13 1    
    29   42   13 1    
    30   43   13 1    
    31   15   14 2    
    32   22   14 1    
    33   16   15 1    
    34   30   15 1    
    35   17   16 1    
    36   31   16 1    
    37   18   17 ar   
    38   22   17 ar   
    39   19   18 ar   
    40   20   19 ar   
    41   32   19 1    
    42   21   20 ar   
    43   33   20 1    
    44   22   21 ar   
    45   34   21 1    
    46   24   23 1    
@<TRIPOS>SUBSTRUCTURE
     1 5TF1        1 GROUP   
@<TRIPOS>SET

