#    Name: 4ih6_1EP_1_INTS_M
#    Modification time : Tue Mar 25 03:56:48 2014

@<TRIPOS>MOLECULE
4ih6_1EP_1_INTS_M
   48     0     9     0     0
SMALL
NO_CHARGES


@<TRIPOS>ATOM
      1 N         -21.2570   -9.8670  -58.9950 N.am      2 SEC2        0.0000 
      2 N         -20.4440  -10.1050  -60.0480 N.am      8 SEL2        0.0000 
      3 N         -22.0700   -9.6290  -57.9420 N.am      5 SEP2        0.0000 
      4 O         -22.0425  -12.5155  -60.8975 O.2       1 ALC1        0.0000 
      5 O         -20.7710  -12.1160  -61.0990 O.2       7 ALL1        0.0000 
      6 O         -23.3140  -12.9150  -60.6960 O.2       4 ALP1        0.0000 
      7 CA        -20.8925  -16.6115  -64.1885 C.3       3 GLC5        0.0000 
      8 CA        -19.9160  -14.8160  -63.6250 C.3       9 GLL5        0.0000 
      9 CA        -21.8690  -18.4070  -64.7520 C.3       6 GLP5        0.0000 
     10 CA        -20.6515  -12.7995  -65.8630 C.3       3 GLC5        0.0000 
     11 CA        -19.8270  -12.3370  -64.0930 C.3       9 GLL5        0.0000 
     12 CA        -21.4760  -13.2620  -67.6330 C.3       6 GLP5        0.0000 
     13 CA        -20.9085  -10.7580  -64.1190 C.3       3 GLC5        0.0000 
     14 CA        -21.9900   -9.1790  -64.1450 C.3       6 GLP5        0.0000 
     15 CA        -18.6380  -11.2990  -65.4700 C.3       3 GLC5        0.0000 
     16 CA        -17.4490  -10.2610  -66.8470 C.3       6 GLP5        0.0000 
     17 CA        -14.4895   -5.8175  -62.1700 C.3       3 GLC5        0.0000 
     18 CA        -15.7180   -5.1240  -63.5570 C.3       9 GLL5        0.0000 
     19 CA        -13.2610   -6.5110  -60.7830 C.3       6 GLP5        0.0000 
     20 CA        -14.3020   -5.6470  -64.6835 C.3       3 GLC5        0.0000 
     21 CA        -12.8860   -6.1700  -65.8100 C.3       6 GLP5        0.0000 
     22 CA        -19.0930   -4.6555  -65.5435 C.3       3 GLC5        0.0000 
     23 CA        -17.5720   -5.8650  -65.0060 C.3       9 GLL5        0.0000 
     24 CA        -20.6140   -3.4460  -66.0810 C.3       6 GLP5        0.0000 
     25 CA        -17.0765   -7.0210  -66.3375 C.3       3 GLC5        0.0000 
     26 CA        -16.5810   -8.1770  -67.6690 C.3       6 GLP5        0.0000 
     27 CA        -19.2440   -3.4315  -64.0240 C.3       3 GLC5        0.0000 
     28 CA        -18.0930   -4.5970  -62.9360 C.3       9 GLL5        0.0000 
     29 CA        -20.3950   -2.2660  -65.1120 C.3       6 GLP5        0.0000 
     30 CA        -16.9845   -3.3570  -64.4155 C.3       3 GLC5        0.0000 
     31 CA        -15.8760   -2.1170  -65.8950 C.3       6 GLP5        0.0000 
     32 CA        -18.9740   -5.2860  -61.1340 C.3       3 GLC5        0.0000 
     33 CA        -19.8550   -5.9750  -59.3320 C.3       6 GLP5        0.0000 
     34 CA        -22.0990  -13.9793  -64.1290 C.3       3 GLC5        0.0000 
     35 CA        -20.3460  -13.4350  -63.1570 C.3       9 GLL5        0.0000 
     36 CA        -24.0670  -13.8330  -64.8670 C.3       6 GLP5        0.0000 
     37 CA        -19.0693   -7.0017  -62.3648 C.3       3 GLC5        0.0000 
     38 CA        -16.9140   -6.9840  -61.3640 C.3       9 GLL5        0.0000 
     39 CA        -21.0700   -7.0280  -62.6860 C.3       6 GLP5        0.0000 
     40 CA        -15.1776   -6.8889  -61.3205 C.3       3 GLC5        0.0000 
     41 CA        -17.2230   -6.9670  -62.7230 C.3       9 GLL5        0.0000 
     42 CA        -19.3697   -7.8875  -62.8130 C.3       3 GLC5        0.0000 
     43 CA        -17.6190   -8.1650  -63.3110 C.3       9 GLL5        0.0000 
     44 CA        -16.4401   -3.8731  -65.0858 C.3       3 GLC5        0.0000 
     45 CA        -16.4449   -3.3951  -62.8383 C.3       3 GLC5        0.0000 
     46 CA        -17.1550   -5.6630  -63.5370 C.3       9 GLL5        0.0000 
     47 CA        -15.6250   -1.7950  -62.4350 C.3       6 GLP5        0.0000 
     48 CA        -19.3991   -6.1043  -63.1449 C.3       3 GLC5        0.0000 
@<TRIPOS>BOND
@<TRIPOS>SUBSTRUCTURE
     1 ALC1        4 GROUP        1 X    ALC  0     ROOT ALC X 1
     2 SEC2        1 GROUP        1 X    SEC  0     **** SEC X 2
     3 GLC5        7 GROUP        1 X    GLC  0     **** GLC X 6
     4 ALP1        6 GROUP        1 Y    ALP  0     ROOT ALP Y 8
     5 SEP2        3 GROUP        1 Y    SEP  0     **** SEP Y 9
     6 GLP5        9 GROUP        1 Y    GLP  0     **** GLP Y 13
     7 ALL1        5 GROUP        1 Z    ALL  0     ROOT ALL Z 15
     8 SEL2        2 GROUP        1 Z    SEL  0     **** SEL Z 16
     9 GLL5        8 GROUP        1 Z    GLL  0     **** GLL Z 20
@<TRIPOS>SET

