#    Name: 4ih6_1EP_1_ligand
#    Modification time : Tue Mar 25 03:56:48 2014

@<TRIPOS>MOLECULE
4ih6_1EP_1_ligand
   45    46     1     0     0
SMALL
NO_CHARGES


@<TRIPOS>ATOM
      1 N1        -18.6950  -11.4410  -60.8030 N.am      1 1EP601      0.0000 
      2 C2        -20.0270  -11.1130  -60.5910 C.2       1 1EP601      0.0000 
      3 O3        -20.4440  -10.1050  -60.0480 O.2       1 1EP601      0.0000 
      4 N4        -20.7710  -12.1160  -61.0990 N.am      1 1EP601      0.0000 
      5 C5        -19.9800  -13.1890  -61.6790 C.3       1 1EP601      0.0000 
      6 C6        -18.5650  -12.6520  -61.4560 C.2       1 1EP601      0.0000 
      7 O7        -17.5070  -13.1700  -61.7620 O.2       1 1EP601      0.0000 
      8 C8        -20.3460  -13.4350  -63.1570 C.3       1 1EP601      0.0000 
      9 C9        -19.9160  -14.8160  -63.6250 C.3       1 1EP601      0.0000 
     10 C10       -19.8270  -12.3370  -64.0930 C.3       1 1EP601      0.0000 
     11 C11       -17.5550  -10.6030  -60.3970 C.3       1 1EP601      0.0000 
     12 C12       -17.4260   -9.3370  -61.2120 C.ar      1 1EP601      0.0000 
     13 C13       -17.0170   -8.1490  -60.6220 C.ar      1 1EP601      0.0000 
     14 C14       -16.9140   -6.9840  -61.3640 C.ar      1 1EP601      0.0000 
     15 C15       -17.2230   -6.9670  -62.7230 C.ar      1 1EP601      0.0000 
     16 C16       -17.6190   -8.1650  -63.3110 C.ar      1 1EP601      0.0000 
     17 C17       -17.7200   -9.3290  -62.5690 C.ar      1 1EP601      0.0000 
     18 C18       -17.1550   -5.6630  -63.5370 C.3       1 1EP601      0.0000 
     19 C19       -15.7180   -5.1240  -63.5570 C.3       1 1EP601      0.0000 
     20 C20       -17.5720   -5.8650  -65.0060 C.3       1 1EP601      0.0000 
     21 C21       -18.0930   -4.5970  -62.9360 C.3       1 1EP601      0.0000 
     22 H         -21.7507  -12.1678  -61.1036 H         1 1EP601      0.0000 
     23 H         -20.0954  -14.0759  -61.1049 H         1 1EP601      0.0000 
     24 H         -21.4610  -13.4071  -63.2170 H         1 1EP601      0.0000 
     25 H         -16.6119  -11.1759  -60.4868 H         1 1EP601      0.0000 
     26 H         -17.6495  -10.3251  -59.3295 H         1 1EP601      0.0000 
     27 H         -16.7858   -8.1349  -59.6121 H         1 1EP601      0.0000 
     28 H         -16.6025   -6.1089  -60.9048 H         1 1EP601      0.0000 
     29 H         -17.8418   -8.1821  -64.3242 H         1 1EP601      0.0000 
     30 H         -18.0188  -10.2070  -63.0305 H         1 1EP601      0.0000 
     31 H         -18.9278  -14.9451  -63.5424 H         1 1EP601      0.0000 
     32 H         -20.3519  -15.5412  -63.0920 H         1 1EP601      0.0000 
     33 H         -20.1531  -14.9738  -64.5836 H         1 1EP601      0.0000 
     34 H         -18.8305  -12.2608  -64.0595 H         1 1EP601      0.0000 
     35 H         -20.0756  -12.5128  -65.0455 H         1 1EP601      0.0000 
     36 H         -20.1978  -11.4395  -63.8542 H         1 1EP601      0.0000 
     37 H         -15.0823   -5.7765  -63.9694 H         1 1EP601      0.0000 
     38 H         -15.6471   -4.2749  -64.0805 H         1 1EP601      0.0000 
     39 H         -15.3815   -4.9293  -62.6357 H         1 1EP601      0.0000 
     40 H         -17.5213   -5.0129  -65.5270 H         1 1EP601      0.0000 
     41 H         -16.9853   -6.5281  -65.4708 H         1 1EP601      0.0000 
     42 H         -18.5111   -6.2001  -65.0828 H         1 1EP601      0.0000 
     43 H         -17.8499   -4.3787  -61.9909 H         1 1EP601      0.0000 
     44 H         -18.0613   -3.7410  -63.4520 H         1 1EP601      0.0000 
     45 H         -19.0457   -4.9010  -62.9308 H         1 1EP601      0.0000 
@<TRIPOS>BOND
     1    2    1 am   
     2    6    1 am   
     3   11    1 1    
     4    3    2 2    
     5    4    2 am   
     6    5    4 1    
     7   22    4 1    
     8    6    5 1    
     9    8    5 1    
    10   23    5 1    
    11    7    6 2    
    12    9    8 1    
    13   10    8 1    
    14   24    8 1    
    15   31    9 1    
    16   32    9 1    
    17   33    9 1    
    18   34   10 1    
    19   35   10 1    
    20   36   10 1    
    21   12   11 1    
    22   25   11 1    
    23   26   11 1    
    24   13   12 ar   
    25   17   12 ar   
    26   14   13 ar   
    27   27   13 1    
    28   15   14 ar   
    29   28   14 1    
    30   16   15 ar   
    31   18   15 1    
    32   17   16 ar   
    33   29   16 1    
    34   30   17 1    
    35   19   18 1    
    36   20   18 1    
    37   21   18 1    
    38   37   19 1    
    39   38   19 1    
    40   39   19 1    
    41   40   20 1    
    42   41   20 1    
    43   42   20 1    
    44   43   21 1    
    45   44   21 1    
    46   45   21 1    
@<TRIPOS>SUBSTRUCTURE
     1 1EP601      1 GROUP   
@<TRIPOS>SET

