#    Name: 1BN1_1_CAVITY_N1_6.mol2
#    Modification time : Mon Mar 10 15:04:08 2014

@<TRIPOS>MOLECULE
1BN1_1_CAVITY_N1_6.mol2
   79     0     6     0     0
SMALL
NO_CHARGES


@<TRIPOS>ATOM
      1 CA         -2.1659    7.9240   15.8032 C.3       5 GLY6        0.0000 
      2 CZ         -3.2728    8.7944   15.2863 C.ar      4 PHE5        0.0000 
      3 CA         -3.1432    6.8057   16.0132 C.3       5 GLY6        0.0000 
      4 CZ         -4.2502    7.6760   15.4963 C.ar      4 PHE5        0.0000 
      5 CA         -1.7727    5.4436   15.1377 C.3       5 GLY6        0.0000 
      6 CA         -2.8797    6.3139   14.6208 C.3       5 GLY6        0.0000 
      7 CZ         -3.9866    7.1842   14.1039 C.ar      4 PHE5        0.0000 
      8 N          -1.5091    4.9518   13.7454 N.2       2 ALA2        0.0000 
      9 DU         -2.6161    5.8222   13.2284 H         6 CUB7        0.0000 
     10 DU         -3.7231    6.6925   12.7115 H         6 CUB7        0.0000 
     11 N          -1.2456    4.4601   12.3530 N.2       2 ALA2        0.0000 
     12 DU         -3.4595    6.2007   11.3192 H         6 CUB7        0.0000 
     13 CZ          0.1249    3.0980   11.4775 C.ar      4 PHE5        0.0000 
     14 DU         -0.9820    3.9683   10.9606 H         6 CUB7        0.0000 
     15 DU         -2.0890    4.8386   10.4437 H         6 CUB7        0.0000 
     16 CA          0.3885    2.6062   10.0852 C.3       5 GLY6        0.0000 
     17 CA         -0.7185    3.4765    9.5683 C.3       5 GLY6        0.0000 
     18 CA         -4.1206    5.6873   16.2232 C.3       5 GLY6        0.0000 
     19 CZ         -5.2275    6.5577   15.7063 C.ar      4 PHE5        0.0000 
     20 CA         -2.7500    4.3253   15.3477 C.3       5 GLY6        0.0000 
     21 CA         -3.8570    5.1956   14.8308 C.3       5 GLY6        0.0000 
     22 CZ         -4.9640    6.0659   14.3139 C.ar      4 PHE5        0.0000 
     23 CZ         -6.0709    6.9362   13.7970 C.ar      4 PHE5        0.0000 
     24 CZ         -7.1779    7.8065   13.2801 C.ar      4 PHE5        0.0000 
     25 OG         -2.4865    3.8335   13.9554 O.2       1 SER1        0.0000 
     26 DU         -3.5934    4.7038   13.4384 H         6 CUB7        0.0000 
     27 O          -4.7004    5.5741   12.9215 O.2       2 ALA2        0.0000 
     28 O          -5.8073    6.4444   12.4046 O.2       2 ALA2        0.0000 
     29 O          -6.9143    7.3148   11.8877 O.2       2 ALA2        0.0000 
     30 OG         -2.2229    3.3417   12.5630 O.2       1 SER1        0.0000 
     31 DU         -3.3299    4.2120   12.0461 H         6 CUB7        0.0000 
     32 O          -4.4368    5.0824   11.5291 O.2       2 ALA2        0.0000 
     33 CZ         -0.8524    1.9796   11.6875 C.ar      4 PHE5        0.0000 
     34 OG         -1.9594    2.8500   11.1706 O.2       1 SER1        0.0000 
     35 O          -3.0663    3.7203   10.6537 O.2       2 ALA2        0.0000 
     36 O          -4.1733    4.5906   10.1368 O.2       2 ALA2        0.0000 
     37 CA         -0.5889    1.4879   10.2952 C.3       5 GLY6        0.0000 
     38 O          -1.6958    2.3582    9.7782 O.2       2 ALA2        0.0000 
     39 O          -3.9097    4.0988    8.7444 O.2       2 ALA2        0.0000 
     40 CA         -6.2049    5.4393   15.9163 C.3       5 GLY6        0.0000 
     41 OG         -3.7274    3.2069   15.5577 O.2       1 SER1        0.0000 
     42 CA         -4.8343    4.0772   15.0408 C.3       5 GLY6        0.0000 
     43 O          -5.9413    4.9475   14.5239 O.2       2 ALA2        0.0000 
     44 O          -7.0482    5.8179   14.0070 O.2       2 ALA2        0.0000 
     45 OG         -3.4638    2.7151   14.1653 O.2       1 SER1        0.0000 
     46 DU         -4.5708    3.5855   13.6484 H         6 CUB7        0.0000 
     47 O          -5.6777    4.4558   13.1315 O.2       2 ALA2        0.0000 
     48 OG         -3.2003    2.2234   12.7730 O.2       1 SER1        0.0000 
     49 O          -4.3072    3.0937   12.2561 O.2       2 ALA2        0.0000 
     50 OG         -1.8298    0.8613   11.8975 O.2       1 SER1        0.0000 
     51 O          -2.9367    1.7316   11.3806 O.2       2 ALA2        0.0000 
     52 O          -4.0437    2.6019   10.8637 O.2       2 ALA2        0.0000 
     53 O          -5.1506    3.4722   10.3468 O.2       2 ALA2        0.0000 
     54 CA         -1.5662    0.3695   10.5051 C.3       5 GLY6        0.0000 
     55 O          -2.6731    1.2398    9.9882 O.2       2 ALA2        0.0000 
     56 CA         -6.0752    3.4506   16.6432 C.3       5 GLY6        0.0000 
     57 CA         -7.1822    4.3210   16.1262 C.3       5 GLY6        0.0000 
     58 CA         -4.7047    2.0885   15.7677 C.3       5 GLY6        0.0000 
     59 CA         -5.8117    2.9589   15.2508 C.3       5 GLY6        0.0000 
     60 CA         -6.9186    3.8292   14.7339 C.3       5 GLY6        0.0000 
     61 OG         -4.4412    1.5968   14.3753 O.2       1 SER1        0.0000 
     62 N          -5.5481    2.4671   13.8584 N.2       2 ALA2        0.0000 
     63 OG         -4.1776    1.1050   12.9830 O.2       1 SER1        0.0000 
     64 O          -5.2846    1.9753   12.4660 O.2       2 ALA2        0.0000 
     65 CA         -2.8071   -0.2571   12.1075 C.3       5 GLY6        0.0000 
     66 DU         -3.9140    0.6132   11.5906 H         6 CUB7        0.0000 
     67 N          -5.0210    1.4836   11.0737 N.2       2 ALA2        0.0000 
     68 CA         -2.5435   -0.7488   10.7151 C.3       5 GLY6        0.0000 
     69 O          -3.6505    0.1215   10.1982 O.2       2 ALA2        0.0000 
     70 O          -4.7574    0.9918    9.6813 O.2       2 ALA2        0.0000 
     71 CA         -5.9456    1.4620   17.3701 C.3       5 GLY6        0.0000 
     72 CA         -7.0526    2.3323   16.8531 C.3       5 GLY6        0.0000 
     73 OD1        -5.6821    0.9702   15.9777 O.3       3 ASP3        0.0000 
     74 N          -5.1549   -0.0133   13.1929 N.2       2 ALA2        0.0000 
     75 CA         -3.7844   -1.3754   12.3175 C.3       5 GLY6        0.0000 
     76 CA         -4.8914   -0.5051   11.8006 C.3       5 GLY6        0.0000 
     77 CA         -5.9983    0.3652   11.2837 C.3       5 GLY6        0.0000 
     78 CA         -3.5209   -1.8672   10.9251 C.3       5 GLY6        0.0000 
     79 CA         -4.6278   -0.9969   10.4082 C.3       5 GLY6        0.0000 
@<TRIPOS>BOND
@<TRIPOS>SUBSTRUCTURE
     1 SER1       25 GROUP   
     2 ALA2        8 GROUP   
     3 ASP3       73 GROUP   
     4 PHE5        2 GROUP   
     5 GLY6        1 GROUP   
     6 CUB7        9 GROUP   
@<TRIPOS>SET

