#    Name: 1bn1_AL5_1_INTS_M
#    Modification time : Mon Mar 24 19:39:23 2014

@<TRIPOS>MOLECULE
1bn1_AL5_1_INTS_M
   35     0    12     0     0
SMALL
NO_CHARGES


@<TRIPOS>ATOM
      1 CA         -2.6940   10.0050   16.6175 C.3       4 GLC5        0.0000 
      2 CA         -1.2240    9.3400   15.2660 C.3      12 GLL5        0.0000 
      3 CA         -4.1640   10.6700   17.9690 C.3       8 GLP5        0.0000 
      4 CA          0.1345    8.1855   16.0565 C.3       4 GLC5        0.0000 
      5 CA          1.4930    7.0310   16.8470 C.3       8 GLP5        0.0000 
      6 CA         -0.7265    9.3965   17.2815 C.3       4 GLC5        0.0000 
      7 CA         -0.2290    9.4530   19.2970 C.3       8 GLP5        0.0000 
      8 CA         -1.6625   12.1005   16.0390 C.3       4 GLC5        0.0000 
      9 CA         -0.7060   11.5750   14.2040 C.3      12 GLL5        0.0000 
     10 CA         -2.6190   12.6260   17.8740 C.3       8 GLP5        0.0000 
     11 N          -4.1905    0.5215   18.7130 N.am      2 SEC2        0.0000 
     12 N          -5.4520    0.8900   18.2090 N.am     10 SEL2        0.0000 
     13 N          -2.9290    0.1530   19.2170 N.am      6 SEP2        0.0000 
     14 O          -4.6695   -1.4040   17.0200 O.2       1 ALC1        0.0000 
     15 O          -5.4260   -0.6700   16.2410 O.2       9 ALL1        0.0000 
     16 O          -3.9130   -2.1380   17.7990 O.2       5 ALP1        0.0000 
     17 Zn         -6.1350   -1.1690   15.8390 Zn        3 ZIC7        0.0000 
     18 Zn         -5.4260   -0.6700   16.2410 Zn       11 ZIL7        0.0000 
     19 Zn         -6.8440   -1.6680   15.4370 Zn        7 ZIP7        0.0000 
     20 CA         -3.2975    2.6335   17.2520 C.3       4 GLC5        0.0000 
     21 CA         -3.9450    1.9180   15.4540 C.3      12 GLL5        0.0000 
     22 CA         -2.6500    3.3490   19.0500 C.3       8 GLP5        0.0000 
     23 CA         -8.0345    3.3555   15.2485 C.3       4 GLC5        0.0000 
     24 CA         -6.1860    3.2900   15.3520 C.3      12 GLL5        0.0000 
     25 CA         -9.8830    3.4210   15.1450 C.3       8 GLP5        0.0000 
     26 CA         -2.1895    6.5018   16.3502 C.3       4 GLC5        0.0000 
     27 CA         -1.6550    8.0180   15.2120 C.3      12 GLL5        0.0000 
     28 CA         -2.4000    5.6260   18.0940 C.3       8 GLP5        0.0000 
     29 CA         -0.3300    6.6598   15.2123 C.3       4 GLC5        0.0000 
     30 CA          1.3190    5.9420   15.8180 C.3       8 GLP5        0.0000 
     31 CA         -2.1310    1.2590   14.9838 C.3       4 GLC5        0.0000 
     32 CA         -3.6630    3.0440   14.7110 C.3      12 GLL5        0.0000 
     33 CA         -0.4580    0.0370   14.8850 C.3       8 GLP5        0.0000 
     34 CA         -4.8304    3.8284   16.7740 C.3       4 GLC5        0.0000 
     35 CA         -4.6900    4.6280   18.4190 C.3       8 GLP5        0.0000 
@<TRIPOS>BOND
@<TRIPOS>SUBSTRUCTURE
     1 ALC1       14 GROUP        1 X    ALC  0     ROOT ALC X 1
     2 SEC2       11 GROUP        1 X    SEC  0     **** SEC X 2
     3 ZIC7       17 GROUP        1 X    ZIC  0     **** ZIC X 5
     4 GLC5        1 GROUP        1 X    GLC  0     **** GLC X 6
     5 ALP1       16 GROUP        1 Y    ALP  0     ROOT ALP Y 8
     6 SEP2       13 GROUP        1 Y    SEP  0     **** SEP Y 9
     7 ZIP7       19 GROUP        1 Y    ZIP  0     **** ZIP Y 12
     8 GLP5        3 GROUP        1 Y    GLP  0     **** GLP Y 13
     9 ALL1       15 GROUP        1 Z    ALL  0     ROOT ALL Z 15
    10 SEL2       12 GROUP        1 Z    SEL  0     **** SEL Z 16
    11 ZIL7       18 GROUP        1 Z    ZIL  0     **** ZIL Z 19
    12 GLL5        2 GROUP        1 Z    GLL  0     **** GLL Z 20
@<TRIPOS>SET

