#    Name: 1bn1_AL5_1_ligand
#    Modification time : Mon Mar 24 19:39:23 2014

@<TRIPOS>MOLECULE
1bn1_AL5_1_ligand
   34    35     1     0     0
SMALL
NO_CHARGES


@<TRIPOS>ATOM
      1 C3         -5.2620    1.9170   15.8680 C.2       1 AL5555      0.0000 
      2 C9         -2.5330    6.0160   13.9960 C.3       1 AL5555      0.0000 
      3 C10        -2.0730    7.4580   14.0060 C.ar      1 AL5555      0.0000 
      4 C11        -2.0590    8.2370   12.8360 C.ar      1 AL5555      0.0000 
      5 C12        -1.6300    9.5640   12.8920 C.ar      1 AL5555      0.0000 
      6 C13        -1.2090   10.1180   14.1120 C.ar      1 AL5555      0.0000 
      7 C14        -1.2240    9.3400   15.2660 C.ar      1 AL5555      0.0000 
      8 C15        -1.6550    8.0180   15.2120 C.ar      1 AL5555      0.0000 
      9 C16        -0.7060   11.5750   14.2040 C.3       1 AL5555      0.0000 
     10 O2A        -7.3420    0.8980   16.8160 O.2       1 AL5555      0.0000 
     11 O1A        -5.4520    0.8900   18.2090 O.2       1 AL5555      0.0000 
     12 N21        -5.4260   -0.6700   16.2410 N.pl3     1 AL5555      0.0000 
     13 S1         -5.9230    0.6800   16.8870 S.o2      1 AL5555      0.0000 
     14 C4         -3.9450    1.9180   15.4540 C.2       1 AL5555      0.0000 
     15 C5         -3.6630    3.0440   14.7110 C.2       1 AL5555      0.0000 
     16 C6         -4.7720    3.8640   14.5850 C.2       1 AL5555      0.0000 
     17 S2         -6.1860    3.2900   15.3520 S.3       1 AL5555      0.0000 
     18 S7         -4.9240    5.4130   13.8250 S.o2      1 AL5555      0.0000 
     19 O3B        -6.0860    5.4170   12.9990 O.2       1 AL5555      0.0000 
     20 O4B        -5.2530    6.3320   14.8660 O.2       1 AL5555      0.0000 
     21 N8         -3.6740    5.7880   13.1100 N.pl3     1 AL5555      0.0000 
     22 H          -2.7871    5.7249   15.0331 H         1 AL5555      0.0000 
     23 H          -1.6786    5.3806   13.6942 H         1 AL5555      0.0000 
     24 H          -2.3631    7.8285   11.9484 H         1 AL5555      0.0000 
     25 H          -1.6207   10.1391   12.0424 H         1 AL5555      0.0000 
     26 H          -0.9157    9.7434   16.1609 H         1 AL5555      0.0000 
     27 H          -1.6656    7.4470   16.0709 H         1 AL5555      0.0000 
     28 H          -3.3042    1.2185   15.6594 H         1 AL5555      0.0000 
     29 H          -2.7923    3.2420   14.3210 H         1 AL5555      0.0000 
     30 H          -3.6337    5.8690   12.1595 H         1 AL5555      0.0000 
     31 H          -0.4452   11.8196   15.1379 H         1 AL5555      0.0000 
     32 H           0.0956   11.7284   13.6261 H         1 AL5555      0.0000 
     33 H          -1.4055   12.2284   13.9144 H         1 AL5555      0.0000 
     34 H          -4.8719   -1.1072   16.9494 H         1 AL5555      0.0000 
@<TRIPOS>BOND
     1   13    1 1    
     2   14    1 2    
     3   17    1 1    
     4    3    2 1    
     5   21    2 1    
     6   22    2 1    
     7   23    2 1    
     8    4    3 ar   
     9    8    3 ar   
    10    5    4 ar   
    11   24    4 1    
    12    6    5 ar   
    13   25    5 1    
    14    7    6 ar   
    15    9    6 1    
    16    8    7 ar   
    17   26    7 1    
    18   27    8 1    
    19   31    9 1    
    20   32    9 1    
    21   33    9 1    
    22   13   10 2    
    23   13   11 2    
    24   13   12 1    
    25   34   12 1    
    26   15   14 1    
    27   28   14 1    
    28   16   15 2    
    29   29   15 1    
    30   17   16 1    
    31   18   16 1    
    32   19   18 2    
    33   20   18 2    
    34   21   18 1    
    35   30   21 1    
@<TRIPOS>SUBSTRUCTURE
     1 AL5555      1 GROUP   
@<TRIPOS>SET

