#    Name: 3zmm_F9J_2_INTS_M
#    Modification time : Tue Mar 25 03:42:19 2014

@<TRIPOS>MOLECULE
3zmm_F9J_2_INTS_M
   68     0     6     0     0
SMALL
NO_CHARGES


@<TRIPOS>ATOM
      1 CA         17.5730  -25.0115   43.0900 C.3       2 GLC5        0.0000 
      2 CA         18.2070  -23.4000   43.7370 C.3       6 GLL5        0.0000 
      3 CA         16.9390  -26.6230   42.4430 C.3       4 GLP5        0.0000 
      4 CA         16.8835  -22.0595   42.5180 C.3       2 GLC5        0.0000 
      5 CA         15.5600  -20.7190   41.2990 C.3       4 GLP5        0.0000 
      6 CA         16.9105  -23.9490   44.8925 C.3       2 GLC5        0.0000 
      7 CA         15.6140  -24.4980   46.0480 C.3       4 GLP5        0.0000 
      8 CA         19.1645  -22.1115   42.5290 C.3       2 GLC5        0.0000 
      9 CA         20.1220  -20.8230   41.3210 C.3       4 GLP5        0.0000 
     10 CA         20.1555  -22.5435   41.8020 C.3       2 GLC5        0.0000 
     11 CA         20.1890  -24.2640   42.2830 C.3       6 GLL5        0.0000 
     12 CA         21.3625  -23.0665   40.9825 C.3       2 GLC5        0.0000 
     13 CA         20.2320  -24.5560   40.9040 C.3       6 GLL5        0.0000 
     14 CA         22.4930  -21.5770   41.0610 C.3       4 GLP5        0.0000 
     15 O          21.3285  -24.7700   38.6765 O.2       1 ALC1        0.0000 
     16 O          21.3330  -25.0000   40.2740 O.2       5 ALL1        0.0000 
     17 O          21.3240  -24.5400   37.0790 O.2       3 ALP1        0.0000 
     18 CA         21.8565  -26.9370   41.3785 C.3       2 GLC5        0.0000 
     19 CA         22.5790  -25.3310   40.8310 C.3       6 GLL5        0.0000 
     20 CA         21.1340  -28.5430   41.9260 C.3       4 GLP5        0.0000 
     21 CA         24.0365  -24.3290   39.5965 C.3       2 GLC5        0.0000 
     22 CA         25.4940  -23.3270   38.3620 C.3       4 GLP5        0.0000 
     23 CA         22.5360  -23.4540   40.9460 C.3       2 GLC5        0.0000 
     24 CA         23.9420  -27.9185   40.7085 C.3       2 GLC5        0.0000 
     25 CA         24.6670  -26.2150   40.3320 C.3       6 GLL5        0.0000 
     26 CA         23.2170  -29.6220   41.0850 C.3       4 GLP5        0.0000 
     27 CA         23.2730  -23.5240   41.7900 C.3       2 GLC5        0.0000 
     28 CA         24.0530  -25.4710   42.5190 C.3       6 GLL5        0.0000 
     29 CA         23.2385  -27.0665   44.1590 C.3       2 GLC5        0.0000 
     30 CA         23.4770  -25.1210   44.7880 C.3       6 GLL5        0.0000 
     31 CA         23.0000  -29.0120   43.5300 C.3       4 GLP5        0.0000 
     32 CA         22.1270  -26.2555   45.9300 C.3       2 GLC5        0.0000 
     33 CA         20.7770  -27.3900   47.0720 C.3       4 GLP5        0.0000 
     34 CA         24.9070  -26.9735   46.7130 C.3       2 GLC5        0.0000 
     35 CA         24.0530  -25.4110   46.1490 C.3       6 GLL5        0.0000 
     36 CA         25.7610  -28.5360   47.2770 C.3       4 GLP5        0.0000 
     37 CA         22.3870  -25.8320   47.1040 C.3       2 GLC5        0.0000 
     38 CA         20.7210  -26.2530   48.0590 C.3       4 GLP5        0.0000 
     39 CA         22.8280  -22.6285   42.8910 C.3       2 GLC5        0.0000 
     40 CA         23.1630  -23.6800   44.7210 C.3       6 GLL5        0.0000 
     41 CA         21.9815  -20.1095   42.7285 C.3       2 GLC5        0.0000 
     42 CA         22.4250  -19.8300   44.4790 C.3       6 GLL5        0.0000 
     43 CA         21.5380  -20.3890   40.9780 C.3       4 GLP5        0.0000 
     44 CA         20.8650  -18.9650   44.0795 C.3       2 GLC5        0.0000 
     45 CA         19.3050  -18.1000   43.6800 C.3       4 GLP5        0.0000 
     46 CA         21.5070  -19.2530   46.2990 C.3       2 GLC5        0.0000 
     47 CA         20.5890  -18.6760   48.1190 C.3       4 GLP5        0.0000 
     48 CA         25.2380  -28.0445   43.0510 C.3       2 GLC5        0.0000 
     49 CA         26.1970  -26.3430   42.1530 C.3       6 GLL5        0.0000 
     50 CA         24.2790  -29.7460   43.9490 C.3       4 GLP5        0.0000 
     51 CA         24.1105  -28.6245   39.7445 C.3       2 GLC5        0.0000 
     52 CA         25.0040  -27.6270   38.4040 C.3       6 GLL5        0.0000 
     53 CA         23.0925  -28.0205   37.7020 C.3       2 GLC5        0.0000 
     54 CA         21.1810  -28.4140   37.0000 C.3       4 GLP5        0.0000 
     55 CA         25.2490  -25.4770   38.3830 C.3       2 GLC5        0.0000 
     56 CA         25.0370  -28.4430   40.5380 C.3       2 GLC5        0.0000 
     57 CA         26.8570  -27.2640   39.9910 C.3       6 GLL5        0.0000 
     58 CA         26.1755  -25.2955   39.1765 C.3       2 GLC5        0.0000 
     59 CA         20.6722  -26.4765   41.7598 C.3       2 GLC5        0.0000 
     60 CA         18.5748  -25.5165   42.0183 C.3       2 GLC5        0.0000 
     61 CA         25.1593  -24.7205   39.6788 C.3       2 GLC5        0.0000 
     62 CA         23.7587  -27.3770   42.8095 C.3       2 GLC5        0.0000 
     63 CA         24.9820  -26.0130   41.6590 C.3       6 GLL5        0.0000 
     64 CA         23.3663  -18.7433   44.9813 C.3       2 GLC5        0.0000 
     65 CA         22.6580  -21.1350   44.5580 C.3       6 GLL5        0.0000 
     66 CA         24.1910  -17.0040   45.4440 C.3       4 GLP5        0.0000 
     67 CA         22.4801  -21.6369   42.8405 C.3       2 GLC5        0.0000 
     68 CA         23.9510  -21.5820   44.4840 C.3       6 GLL5        0.0000 
@<TRIPOS>BOND
@<TRIPOS>SUBSTRUCTURE
     1 ALC1       15 GROUP        1 X    ALC  0     ROOT ALC X 1
     2 GLC5        1 GROUP        1 X    GLC  0     **** GLC X 6
     3 ALP1       17 GROUP        1 Y    ALP  0     ROOT ALP Y 8
     4 GLP5        3 GROUP        1 Y    GLP  0     **** GLP Y 13
     5 ALL1       16 GROUP        1 Z    ALL  0     ROOT ALL Z 15
     6 GLL5        2 GROUP        1 Z    GLL  0     **** GLL Z 20
@<TRIPOS>SET

