#    Name: 3zmm_F9J_2_ligand
#    Modification time : Tue Mar 25 03:42:19 2014

@<TRIPOS>MOLECULE
3zmm_F9J_2_ligand
   50    53     1     0     0
SMALL
NO_CHARGES


@<TRIPOS>ATOM
      1 C1         18.2070  -23.4000   43.7370 C.3       1 F9J2134     0.0000 
      2 C2         18.8950  -23.8430   42.5090 C.2       1 F9J2134     0.0000 
      3 C3         20.1890  -24.2640   42.2830 C.2       1 F9J2134     0.0000 
      4 C4         20.2320  -24.5560   40.9040 C.2       1 F9J2134     0.0000 
      5 N1         19.0470  -24.3320   40.3140 N.pl3     1 F9J2134     0.0000 
      6 N2         18.2490  -23.8990   41.3030 N.2       1 F9J2134     0.0000 
      7 N3         21.3330  -25.0000   40.2740 N.pl3     1 F9J2134     0.0000 
      8 C5         22.5790  -25.3310   40.8310 C.ar      1 F9J2134     0.0000 
      9 N4         23.4400  -25.8550   39.9370 N.ar      1 F9J2134     0.0000 
     10 C6         24.6670  -26.2150   40.3320 C.ar      1 F9J2134     0.0000 
     11 C7         24.9820  -26.0130   41.6590 C.ar      1 F9J2134     0.0000 
     12 C8         24.0530  -25.4710   42.5190 C.ar      1 F9J2134     0.0000 
     13 N5         22.8240  -25.1110   42.1380 N.ar      1 F9J2134     0.0000 
     14 O1         24.5160  -25.3300   43.8320 O.3       1 F9J2134     0.0000 
     15 C9         23.4770  -25.1210   44.7880 C.3       1 F9J2134     0.0000 
     16 C10        24.0530  -25.4110   46.1490 C.3       1 F9J2134     0.0000 
     17 C11        23.1630  -23.6800   44.7210 C.ar      1 F9J2134     0.0000 
     18 N6         24.2340  -22.8810   44.5700 N.ar      1 F9J2134     0.0000 
     19 C12        23.9510  -21.5820   44.4840 C.ar      1 F9J2134     0.0000 
     20 C13        22.6580  -21.1350   44.5580 C.ar      1 F9J2134     0.0000 
     21 C14        21.6300  -22.0350   44.7190 C.ar      1 F9J2134     0.0000 
     22 N7         21.8680  -23.3490   44.8000 N.ar      1 F9J2134     0.0000 
     23 F1         22.4250  -19.8300   44.4790 F         1 F9J2134     0.0000 
     24 F2         26.1970  -26.3430   42.1530 F         1 F9J2134     0.0000 
     25 N8         25.6090  -26.7700   39.4010 N.3       1 F9J2134     0.0000 
     26 C15        25.0040  -27.6270   38.4040 C.3       1 F9J2134     0.0000 
     27 C16        26.0710  -28.1770   37.4860 C.3       1 F9J2134     0.0000 
     28 O2         27.0490  -28.8770   38.2490 O.3       1 F9J2134     0.0000 
     29 C17        27.7850  -27.9040   38.9790 C.3       1 F9J2134     0.0000 
     30 C18        26.8570  -27.2640   39.9910 C.3       1 F9J2134     0.0000 
     31 H          20.8841  -24.3434   42.8855 H         1 F9J2134     0.0000 
     32 H          18.8238  -24.4525   39.4032 H         1 F9J2134     0.0000 
     33 H          21.2735  -25.1268   39.1909 H         1 F9J2134     0.0000 
     34 H          22.6376  -25.7016   44.6088 H         1 F9J2134     0.0000 
     35 H          24.7175  -20.8779   44.3577 H         1 F9J2134     0.0000 
     36 H          20.6506  -21.6688   44.7773 H         1 F9J2134     0.0000 
     37 H          24.2769  -27.0742   37.7989 H         1 F9J2134     0.0000 
     38 H          24.4822  -28.4686   38.8729 H         1 F9J2134     0.0000 
     39 H          26.5137  -27.3362   36.9352 H         1 F9J2134     0.0000 
     40 H          25.5844  -28.8338   36.7524 H         1 F9J2134     0.0000 
     41 H          28.1743  -27.1163   38.3297 H         1 F9J2134     0.0000 
     42 H          28.6229  -28.3492   39.5207 H         1 F9J2134     0.0000 
     43 H          26.6386  -28.0081   40.7819 H         1 F9J2134     0.0000 
     44 H          27.4007  -26.4358   40.4863 H         1 F9J2134     0.0000 
     45 H          18.2051  -24.1121   44.4391 H         1 F9J2134     0.0000 
     46 H          18.6439  -22.5946   44.1376 H         1 F9J2134     0.0000 
     47 H          17.2525  -23.1588   43.5615 H         1 F9J2134     0.0000 
     48 H          24.3823  -26.3526   46.2200 H         1 F9J2134     0.0000 
     49 H          24.8265  -24.8133   46.3600 H         1 F9J2134     0.0000 
     50 H          23.3764  -25.2817   46.8739 H         1 F9J2134     0.0000 
@<TRIPOS>BOND
     1    2    1 1    
     2   45    1 1    
     3   46    1 1    
     4   47    1 1    
     5    3    2 1    
     6    6    2 2    
     7    4    3 2    
     8   31    3 1    
     9    5    4 1    
    10    7    4 1    
    11    6    5 1    
    12   32    5 1    
    13    8    7 1    
    14   33    7 1    
    15    9    8 ar   
    16   13    8 ar   
    17   10    9 ar   
    18   11   10 ar   
    19   25   10 1    
    20   12   11 ar   
    21   24   11 1    
    22   13   12 ar   
    23   14   12 1    
    24   15   14 1    
    25   16   15 1    
    26   17   15 1    
    27   34   15 1    
    28   48   16 1    
    29   49   16 1    
    30   50   16 1    
    31   18   17 ar   
    32   22   17 ar   
    33   19   18 ar   
    34   20   19 ar   
    35   35   19 1    
    36   21   20 ar   
    37   23   20 1    
    38   22   21 ar   
    39   36   21 1    
    40   26   25 1    
    41   30   25 1    
    42   27   26 1    
    43   37   26 1    
    44   38   26 1    
    45   28   27 1    
    46   39   27 1    
    47   40   27 1    
    48   29   28 1    
    49   30   29 1    
    50   41   29 1    
    51   42   29 1    
    52   43   30 1    
    53   44   30 1    
@<TRIPOS>SUBSTRUCTURE
     1 F9J2134     1 GROUP   
@<TRIPOS>SET

