#    Name: 2j9m_PY8_1_INTS_M
#    Modification time : Tue Mar 25 19:47:03 2014

@<TRIPOS>MOLECULE
2j9m_PY8_1_INTS_M
   62     0     9     0     0
SMALL
NO_CHARGES


@<TRIPOS>ATOM
      1 CA         -2.2925   32.0615    7.9425 C.3       3 GLC5        0.0000 
      2 CA         -1.2000   30.6400    8.6920 C.3       9 GLL5        0.0000 
      3 CA         -3.3850   33.4830    7.1930 C.3       6 GLP5        0.0000 
      4 CA         -0.2850   30.8530    5.9460 C.3       3 GLC5        0.0000 
      5 CA          1.0830   31.1320    7.0230 C.3       9 GLL5        0.0000 
      6 CA         -1.6530   30.5740    4.8690 C.3       6 GLP5        0.0000 
      7 CA          1.5055   32.4035    5.5300 C.3       3 GLC5        0.0000 
      8 CA          1.9280   33.6750    4.0370 C.3       6 GLP5        0.0000 
      9 CA          1.7355   31.3210    8.6765 C.3       3 GLC5        0.0000 
     10 CA          2.3880   31.5100   10.3300 C.3       6 GLP5        0.0000 
     11 N           3.0100   31.8815    5.8700 N.am      2 SEC2        0.0000 
     12 N           2.1770   30.8040    6.3620 N.am      8 SEL2        0.0000 
     13 N           3.8430   32.9590    5.3780 N.am      5 SEP2        0.0000 
     14 CA          1.7090   28.1490    5.2865 C.3       3 GLC5        0.0000 
     15 CA          2.6290   29.5460    6.3530 C.3       9 GLL5        0.0000 
     16 CA          0.7890   26.7520    4.2200 C.3       6 GLP5        0.0000 
     17 CA          3.9200   31.2650    6.1255 C.3       3 GLC5        0.0000 
     18 CA          5.2110   32.9840    5.8980 C.3       6 GLP5        0.0000 
     19 CA          3.3060   29.6190    8.0705 C.3       3 GLC5        0.0000 
     20 CA          3.9830   29.6920    9.7880 C.3       6 GLP5        0.0000 
     21 CA          0.8195   27.8080    5.9715 C.3       3 GLC5        0.0000 
     22 CA          0.8500   28.8640    7.7230 C.3       9 GLL5        0.0000 
     23 CA         -0.7910   27.7460    6.8870 C.3       3 GLC5        0.0000 
     24 CA         -2.4320   26.6280    6.0510 C.3       6 GLP5        0.0000 
     25 CA         -0.4015   29.7190    6.2960 C.3       3 GLC5        0.0000 
     26 CA          2.4165   29.2780    8.7555 C.3       3 GLC5        0.0000 
     27 CA          2.4305   28.3430    9.5620 C.3       3 GLC5        0.0000 
     28 CA          0.8780   26.9940    9.3360 C.3       9 GLL5        0.0000 
     29 CA          0.9830   25.5395    6.4765 C.3       3 GLC5        0.0000 
     30 CA          1.5440   25.8080    8.6250 C.3       9 GLL5        0.0000 
     31 CA          0.4220   25.2710    4.3280 C.3       6 GLP5        0.0000 
     32 CA          0.5180   23.9135    8.1790 C.3       3 GLC5        0.0000 
     33 CA         -0.5080   22.0190    7.7330 C.3       6 GLP5        0.0000 
     34 CA          4.3835   26.2435   10.2850 C.3       3 GLC5        0.0000 
     35 CA          3.0400   25.7920    8.9420 C.3       9 GLL5        0.0000 
     36 CA          5.7270   26.6950   11.6280 C.3       6 GLP5        0.0000 
     37 CA          3.5115   27.7420    9.3650 C.3       3 GLC5        0.0000 
     38 O           2.7935   23.6465    7.4840 O.2       1 ALC1        0.0000 
     39 O           3.6590   24.5910    8.3540 O.2       7 ALL1        0.0000 
     40 O           1.9280   22.7020    6.6140 O.2       4 ALP1        0.0000 
     41 N           6.7695   26.3745    9.3100 N.am      2 SEC2        0.0000 
     42 N           6.1440   25.3260    8.6840 N.am      8 SEL2        0.0000 
     43 N           7.3950   27.4230    9.9360 N.am      5 SEP2        0.0000 
     44 CA          4.2050   28.4295    8.1860 C.3       3 GLC5        0.0000 
     45 CA          4.4270   27.1670    6.5840 C.3       9 GLL5        0.0000 
     46 CA          3.9430   25.4825    3.4120 C.3       3 GLC5        0.0000 
     47 CA          5.7190   26.6020    4.1580 C.3       9 GLL5        0.0000 
     48 CA          2.1670   24.3630    2.6660 C.3       6 GLP5        0.0000 
     49 CA          6.2880   28.2125    6.6845 C.3       3 GLC5        0.0000 
     50 CA          4.3730   28.0980    5.5470 C.3       9 GLL5        0.0000 
     51 CA          8.2030   28.3270    7.8220 C.3       6 GLP5        0.0000 
     52 O           4.4160   29.9625    5.5625 O.2       1 ALC1        0.0000 
     53 O           3.7400   29.2770    5.6680 O.2       7 ALL1        0.0000 
     54 O           5.0920   30.6480    5.4570 O.2       4 ALP1        0.0000 
     55 CA         -1.0328   30.4895    6.5403 C.3       3 GLC5        0.0000 
     56 CA          0.3750   30.1700    7.7310 C.3       9 GLL5        0.0000 
     57 CA          0.9877   30.9575    9.2707 C.3       3 GLC5        0.0000 
     58 CA          6.7319   27.2259    6.8331 C.3       3 GLC5        0.0000 
     59 CA          2.7540   27.2351    4.7131 C.3       3 GLC5        0.0000 
     60 CA          5.0380   27.8040    4.3470 C.3       9 GLL5        0.0000 
     61 CA          6.2814   29.0343    4.7989 C.3       3 GLC5        0.0000 
     62 CA          7.6870   30.4180    4.6980 C.3       6 GLP5        0.0000 
@<TRIPOS>BOND
@<TRIPOS>SUBSTRUCTURE
     1 ALC1       38 GROUP        1 X    ALC  0     ROOT ALC X 1
     2 SEC2       11 GROUP        1 X    SEC  0     **** SEC X 2
     3 GLC5        1 GROUP        1 X    GLC  0     **** GLC X 6
     4 ALP1       40 GROUP        1 Y    ALP  0     ROOT ALP Y 8
     5 SEP2       13 GROUP        1 Y    SEP  0     **** SEP Y 9
     6 GLP5        3 GROUP        1 Y    GLP  0     **** GLP Y 13
     7 ALL1       39 GROUP        1 Z    ALL  0     ROOT ALL Z 15
     8 SEL2       12 GROUP        1 Z    SEL  0     **** SEL Z 16
     9 GLL5        2 GROUP        1 Z    GLL  0     **** GLL Z 20
@<TRIPOS>SET

