#    Name: 2j9m_PY8_1_ligand
#    Modification time : Tue Mar 25 19:47:03 2014

@<TRIPOS>MOLECULE
2j9m_PY8_1_ligand
   36    38     1     0     0
SMALL
NO_CHARGES


@<TRIPOS>ATOM
      1 BR1        -1.2000   30.6400    8.6920 Br        1 PY8299      0.0000 
      2 C1          0.3750   30.1700    7.7310 C.ar      1 PY8299      0.0000 
      3 C2          1.0830   31.1320    7.0230 C.ar      1 PY8299      0.0000 
      4 N3          2.1770   30.8040    6.3620 N.ar      1 PY8299      0.0000 
      5 C4          2.6290   29.5460    6.3530 C.ar      1 PY8299      0.0000 
      6 N5          1.9630   28.5920    7.0210 N.ar      1 PY8299      0.0000 
      7 C6          0.8500   28.8640    7.7230 C.ar      1 PY8299      0.0000 
      8 N7          0.2070   27.8900    8.3740 N.pl3     1 PY8299      0.0000 
      9 C8          0.8780   26.9940    9.3360 C.3       1 PY8299      0.0000 
     10 C9          1.5440   25.8080    8.6250 C.3       1 PY8299      0.0000 
     11 C10         3.0400   25.7920    8.9420 C.3       1 PY8299      0.0000 
     12 N13         3.6590   24.5910    8.3540 N.pl3     1 PY8299      0.0000 
     13 S14         5.1630   24.8120    7.6800 S.o2      1 PY8299      0.0000 
     14 O14         5.6230   23.4840    7.1330 O.2       1 PY8299      0.0000 
     15 O15         6.1440   25.3260    8.6840 O.2       1 PY8299      0.0000 
     16 C15         5.1060   25.9660    6.3970 C.ar      1 PY8299      0.0000 
     17 C20         4.4270   27.1670    6.5840 C.ar      1 PY8299      0.0000 
     18 C16         5.7550   25.6830    5.1980 C.ar      1 PY8299      0.0000 
     19 C17         5.7190   26.6020    4.1580 C.ar      1 PY8299      0.0000 
     20 C18         5.0380   27.8040    4.3470 C.ar      1 PY8299      0.0000 
     21 C19         4.3730   28.0980    5.5470 C.ar      1 PY8299      0.0000 
     22 N21         3.7400   29.2770    5.6680 N.pl3     1 PY8299      0.0000 
     23 H           0.7227   32.1114    7.0327 H         1 PY8299      0.0000 
     24 H          -0.8125   27.7084    8.2367 H         1 PY8299      0.0000 
     25 H           0.1569   26.5979   10.0606 H         1 PY8299      0.0000 
     26 H           1.6504   27.5368    9.8933 H         1 PY8299      0.0000 
     27 H           1.4030   25.9081    7.5560 H         1 PY8299      0.0000 
     28 H           1.0925   24.8861    8.9699 H         1 PY8299      0.0000 
     29 H           3.1635   25.7984   10.0250 H         1 PY8299      0.0000 
     30 H           3.4893   26.6969    8.5328 H         1 PY8299      0.0000 
     31 H           3.3028   23.7228    8.3175 H         1 PY8299      0.0000 
     32 H           3.9688   27.3669    7.4788 H         1 PY8299      0.0000 
     33 H           6.2593   24.7948    5.0849 H         1 PY8299      0.0000 
     34 H           6.1813   26.4042    3.2710 H         1 PY8299      0.0000 
     35 H           5.0203   28.5042    3.5798 H         1 PY8299      0.0000 
     36 H           4.1992   30.1230    5.1336 H         1 PY8299      0.0000 
@<TRIPOS>BOND
     1    2    1 1    
     2    3    2 ar   
     3    7    2 ar   
     4    4    3 ar   
     5   23    3 1    
     6    5    4 ar   
     7    6    5 ar   
     8   22    5 1    
     9    7    6 ar   
    10    8    7 1    
    11    9    8 1    
    12   24    8 1    
    13   10    9 1    
    14   25    9 1    
    15   26    9 1    
    16   11   10 1    
    17   27   10 1    
    18   28   10 1    
    19   12   11 1    
    20   29   11 1    
    21   30   11 1    
    22   13   12 1    
    23   31   12 1    
    24   14   13 2    
    25   15   13 2    
    26   16   13 1    
    27   17   16 ar   
    28   18   16 ar   
    29   21   17 ar   
    30   32   17 1    
    31   19   18 ar   
    32   33   18 1    
    33   20   19 ar   
    34   34   19 1    
    35   21   20 ar   
    36   35   20 1    
    37   22   21 1    
    38   36   22 1    
@<TRIPOS>SUBSTRUCTURE
     1 PY8299      1 GROUP   
@<TRIPOS>SET

