#    Name: 4b45_GSP_1_INTS_M
#    Modification time : Tue Mar 25 06:37:34 2014

@<TRIPOS>MOLECULE
4b45_GSP_1_INTS_M
   64     0     9     0     0
SMALL
NO_CHARGES


@<TRIPOS>ATOM
      1 N          -4.6145  -38.8130  -18.1600 N.am      2 SEC2        0.0000 
      2 N          -4.8350  -39.2380  -16.6080 N.am      8 SEL2        0.0000 
      3 N          -4.3940  -38.3880  -19.7120 N.am      5 SEP2        0.0000 
      4 N          -5.8625  -38.3835  -17.6935 N.am      2 SEC2        0.0000 
      5 N          -6.8900  -37.5290  -18.7790 N.am      5 SEP2        0.0000 
      6 CA         -3.0475  -41.2840  -19.3460 C.3       3 GLC5        0.0000 
      7 CA         -2.2380  -40.5180  -17.7790 C.3       9 GLL5        0.0000 
      8 CA         -3.8570  -42.0500  -20.9130 C.3       6 GLP5        0.0000 
      9 CA         -2.2150  -38.9760  -18.5845 C.3       3 GLC5        0.0000 
     10 CA         -2.1920  -37.4340  -19.3900 C.3       6 GLP5        0.0000 
     11 CA         -0.5525  -40.8755  -18.8515 C.3       3 GLC5        0.0000 
     12 CA          1.1330  -41.2330  -19.9240 C.3       6 GLP5        0.0000 
     13 N          -4.7870  -42.0585  -18.7765 N.am      2 SEC2        0.0000 
     14 N          -4.9400  -41.4120  -17.6790 N.am      8 SEL2        0.0000 
     15 N          -4.6340  -42.7050  -19.8740 N.am      5 SEP2        0.0000 
     16 N          -4.7700  -36.6280  -13.5880 N.am      2 SEC2        0.0000 
     17 N          -4.7110  -37.6690  -14.5360 N.am      8 SEL2        0.0000 
     18 N          -4.8290  -35.5870  -12.6400 N.am      5 SEP2        0.0000 
     19 N          -5.8500  -37.1305  -17.7870 N.am      2 SEC2        0.0000 
     20 N          -4.8100  -36.7320  -16.7950 N.am      8 SEL2        0.0000 
     21 N          -5.7015  -35.7225  -17.4475 N.am      2 SEC2        0.0000 
     22 N          -6.5930  -34.7130  -18.1000 N.am      5 SEP2        0.0000 
     23 N          -2.3260  -35.0350  -13.4355 N.am      2 SEC2        0.0000 
     24 N          -2.4670  -35.6880  -14.6100 N.am      8 SEL2        0.0000 
     25 N          -2.1850  -34.3820  -12.2610 N.am      5 SEP2        0.0000 
     26 CA         -0.8950  -37.1665  -17.9985 C.3       3 GLC5        0.0000 
     27 CA          0.4020  -36.8990  -16.6070 C.3       9 GLL5        0.0000 
     28 N           4.9830  -35.9250  -18.0425 N.am      2 SEC2        0.0000 
     29 N           3.4810  -35.7420  -17.9410 N.am      8 SEL2        0.0000 
     30 N           6.4850  -36.1080  -18.1440 N.am      5 SEP2        0.0000 
     31 O           4.2725  -36.6320  -18.4865 O.2       1 ALC1        0.0000 
     32 O           3.4810  -35.7420  -17.9410 O.2       7 ALL1        0.0000 
     33 O           5.0640  -37.5220  -19.0320 O.2       4 ALP1        0.0000 
     34 CA          4.5795  -36.6290  -14.0850 C.3       3 GLC5        0.0000 
     35 CA          3.3680  -36.4190  -15.7290 C.3       9 GLL5        0.0000 
     36 CA          5.7910  -36.8390  -12.4410 C.3       6 GLP5        0.0000 
     37 O           5.2625  -36.9670  -14.7105 O.2       1 ALC1        0.0000 
     38 O           4.7480  -36.3260  -15.8380 O.2       7 ALL1        0.0000 
     39 O           5.7770  -37.6080  -13.5830 O.2       4 ALP1        0.0000 
     40 CA          1.2250  -34.2130  -14.3625 C.3       3 GLC5        0.0000 
     41 CA          2.8410  -35.1530  -15.2560 C.3       9 GLL5        0.0000 
     42 CA         -0.3910  -33.2730  -13.4690 C.3       6 GLP5        0.0000 
     43 CA          4.4390  -35.3165  -13.8895 C.3       3 GLC5        0.0000 
     44 CA          6.0370  -35.4800  -12.5230 C.3       6 GLP5        0.0000 
     45 CA          4.1690  -34.3495  -10.3215 C.3       3 GLC5        0.0000 
     46 CA          2.5040  -34.2270  -11.7770 C.3       9 GLL5        0.0000 
     47 CA          5.8340  -34.4720   -8.8660 C.3       6 GLP5        0.0000 
     48 N           2.0505  -34.8935   -8.7665 N.am      2 SEC2        0.0000 
     49 N           2.2910  -33.4910   -9.4490 N.am      8 SEL2        0.0000 
     50 N           1.8100  -36.2960   -8.0840 N.am      5 SEP2        0.0000 
     51 N           2.5135  -32.1570   -8.6930 N.am      2 SEC2        0.0000 
     52 N           2.7360  -30.8230   -7.9370 N.am      5 SEP2        0.0000 
     53 O           3.3685  -30.9010  -10.4150 O.2       1 ALC1        0.0000 
     54 O           3.3270  -32.1060  -11.0680 O.2       7 ALL1        0.0000 
     55 O           3.4100  -29.6960   -9.7620 O.2       4 ALP1        0.0000 
     56 O           5.3740  -30.6360  -13.8060 O.2       1 ALC1        0.0000 
     57 O           4.4050  -30.5910  -12.6090 O.2       7 ALL1        0.0000 
     58 O           6.3430  -30.6810  -15.0030 O.2       4 ALP1        0.0000 
     59 O           3.9075  -30.1435  -11.1855 O.2       1 ALC1        0.0000 
     60 N           4.8240  -32.8230  -14.3735 N.am      2 SEC2        0.0000 
     61 N           3.5670  -32.7460  -13.3360 N.am      8 SEL2        0.0000 
     62 N           6.0810  -32.9000  -15.4110 N.am      5 SEP2        0.0000 
     63 CA          1.1667  -33.6818  -12.9458 C.3       3 GLC5        0.0000 
     64 CA          2.9450  -33.9540  -13.0680 C.3       9 GLL5        0.0000 
@<TRIPOS>BOND
@<TRIPOS>SUBSTRUCTURE
     1 ALC1       31 GROUP        1 X    ALC  0     ROOT ALC X 1
     2 SEC2        1 GROUP        1 X    SEC  0     **** SEC X 2
     3 GLC5        6 GROUP        1 X    GLC  0     **** GLC X 6
     4 ALP1       33 GROUP        1 Y    ALP  0     ROOT ALP Y 8
     5 SEP2        3 GROUP        1 Y    SEP  0     **** SEP Y 9
     6 GLP5        8 GROUP        1 Y    GLP  0     **** GLP Y 13
     7 ALL1       32 GROUP        1 Z    ALL  0     ROOT ALL Z 15
     8 SEL2        2 GROUP        1 Z    SEL  0     **** SEL Z 16
     9 GLL5        7 GROUP        1 Z    GLL  0     **** GLL Z 20
@<TRIPOS>SET

