#    Name: 4b45_GSP_1_ligand
#    Modification time : Tue Mar 25 06:37:34 2014

@<TRIPOS>MOLECULE
4b45_GSP_1_ligand
   46    48     1     0     0
SMALL
NO_CHARGES


@<TRIPOS>ATOM
      1 PG         -4.0550  -40.6270  -16.7960 P.3       1 GSP1342     0.0000 
      2 O3B        -4.8350  -39.2380  -16.6080 O.3       1 GSP1342     0.0000 
      3 S1G        -2.2380  -40.5180  -17.7790 S.2       1 GSP1342     0.0000 
      4 O2G        -3.8350  -41.3050  -15.4120 O.3       1 GSP1342     0.0000 
      5 O3G        -4.9400  -41.4120  -17.6790 O.3       1 GSP1342     0.0000 
      6 PB         -4.2730  -37.8890  -15.9630 P.3       1 GSP1342     0.0000 
      7 O1B        -4.7110  -37.6690  -14.5360 O.co2     1 GSP1342     0.0000 
      8 O2B        -4.8100  -36.7320  -16.7950 O.co2     1 GSP1342     0.0000 
      9 PA         -1.7670  -36.8870  -15.1950 P.3       1 GSP1342     0.0000 
     10 O1A        -1.0090  -37.5680  -14.0870 O.co2     1 GSP1342     0.0000 
     11 O2A        -2.4670  -35.6880  -14.6100 O.co2     1 GSP1342     0.0000 
     12 O3A        -2.7020  -37.8740  -15.9770 O.3       1 GSP1342     0.0000 
     13 O5'        -0.8000  -36.2990  -16.2590 O.3       1 GSP1342     0.0000 
     14 C5'         0.4020  -36.8990  -16.6070 C.3       1 GSP1342     0.0000 
     15 C4'         1.4440  -35.9140  -16.9280 C.3       1 GSP1342     0.0000 
     16 O4'         1.5560  -34.9720  -15.9030 O.3       1 GSP1342     0.0000 
     17 C3'         2.7780  -36.5300  -17.0590 C.3       1 GSP1342     0.0000 
     18 O3'         3.4810  -35.7420  -17.9410 O.3       1 GSP1342     0.0000 
     19 C2'         3.3680  -36.4190  -15.7290 C.3       1 GSP1342     0.0000 
     20 O2'         4.7480  -36.3260  -15.8380 O.3       1 GSP1342     0.0000 
     21 C1'         2.8410  -35.1530  -15.2560 C.3       1 GSP1342     0.0000 
     22 N9          2.6100  -35.0500  -13.8290 N.pl3     1 GSP1342     0.0000 
     23 C8          1.9940  -35.9460  -13.0510 C.2       1 GSP1342     0.0000 
     24 N7          1.9260  -35.4660  -11.7940 N.2       1 GSP1342     0.0000 
     25 C5          2.5040  -34.2270  -11.7770 C.2       1 GSP1342     0.0000 
     26 C6          2.7000  -33.2640  -10.7500 C.2       1 GSP1342     0.0000 
     27 O6          2.2910  -33.4910   -9.4490 O.2       1 GSP1342     0.0000 
     28 N1          3.3270  -32.1060  -11.0680 N.am      1 GSP1342     0.0000 
     29 C2          3.7390  -31.8700  -12.3340 C.2       1 GSP1342     0.0000 
     30 N2          4.4050  -30.5910  -12.6090 N.pl3     1 GSP1342     0.0000 
     31 N3          3.5670  -32.7460  -13.3360 N.2       1 GSP1342     0.0000 
     32 C4          2.9450  -33.9540  -13.0680 C.2       1 GSP1342     0.0000 
     33 H           0.2807  -37.5779  -17.4864 H         1 GSP1342     0.0000 
     34 H           0.7835  -37.5561  -15.7874 H         1 GSP1342     0.0000 
     35 H           1.2030  -35.4214  -17.8664 H         1 GSP1342     0.0000 
     36 H           2.6799  -37.5287  -17.3467 H         1 GSP1342     0.0000 
     37 H           3.0302  -37.2039  -15.1185 H         1 GSP1342     0.0000 
     38 H           3.4893  -34.3380  -15.5858 H         1 GSP1342     0.0000 
     39 H           1.6482  -36.8081  -13.3405 H         1 GSP1342     0.0000 
     40 H           3.4934  -31.3885  -10.3264 H         1 GSP1342     0.0000 
     41 H           4.1107  -29.8132  -12.0535 H         1 GSP1342     0.0000 
     42 H           5.0985  -30.6020  -13.3293 H         1 GSP1342     0.0000 
     43 H          -4.5809  -40.9682  -14.8374 H         1 GSP1342     0.0000 
     44 H          -5.8633  -41.2482  -17.3317 H         1 GSP1342     0.0000 
     45 H           3.7109  -36.3478  -18.7026 H         1 GSP1342     0.0000 
     46 H           5.1033  -36.7833  -15.0227 H         1 GSP1342     0.0000 
@<TRIPOS>BOND
     1    2    1 1    
     2    3    1 2    
     3    4    1 1    
     4    5    1 1    
     5    6    2 1    
     6   43    4 1    
     7   44    5 1    
     8    7    6 ar   
     9    8    6 ar   
    10   12    6 1    
    11   10    9 ar   
    12   11    9 ar   
    13   12    9 1    
    14   13    9 1    
    15   14   13 1    
    16   15   14 1    
    17   33   14 1    
    18   34   14 1    
    19   16   15 1    
    20   17   15 1    
    21   35   15 1    
    22   21   16 1    
    23   18   17 1    
    24   19   17 1    
    25   36   17 1    
    26   45   18 1    
    27   20   19 1    
    28   21   19 1    
    29   37   19 1    
    30   46   20 1    
    31   22   21 1    
    32   38   21 1    
    33   23   22 1    
    34   32   22 1    
    35   24   23 2    
    36   39   23 1    
    37   25   24 1    
    38   26   25 1    
    39   32   25 2    
    40   27   26 2    
    41   28   26 am   
    42   29   28 1    
    43   40   28 1    
    44   30   29 1    
    45   31   29 2    
    46   41   30 1    
    47   42   30 1    
    48   32   31 1    
@<TRIPOS>SUBSTRUCTURE
     1 GSP1342     1 GROUP   
@<TRIPOS>SET

