#    Name: 1ke5_LS1_1_INTS_M
#    Modification time : Tue Mar 25 09:51:05 2014

@<TRIPOS>MOLECULE
1ke5_LS1_1_INTS_M
   58     0     9     0     0
SMALL
NO_CHARGES


@<TRIPOS>ATOM
      1 O         -10.2880   54.0540   40.5890 O.2       1 ALC1        0.0000 
      2 O          -9.5330   52.7730   40.6960 O.2       7 ALL1        0.0000 
      3 O         -11.0430   55.3350   40.4820 O.2       4 ALP1        0.0000 
      4 CA         -9.1960   48.9160   42.5815 C.3       3 GLC5        0.0000 
      5 CA         -7.5730   49.8180   41.8530 C.3       9 GLL5        0.0000 
      6 CA        -10.8190   48.0140   43.3100 C.3       6 GLP5        0.0000 
      7 CA         -7.8750   48.7325   43.8595 C.3       3 GLC5        0.0000 
      8 CA         -6.8050   50.3380   43.0180 C.3       9 GLL5        0.0000 
      9 CA         -8.9450   47.1270   44.7010 C.3       6 GLP5        0.0000 
     10 N         -11.2860   52.9740   37.7395 N.am      2 SEC2        0.0000 
     11 N         -10.7110   52.1550   38.7830 N.am      8 SEL2        0.0000 
     12 N         -11.8610   53.7930   36.6960 N.am      5 SEP2        0.0000 
     13 CA        -10.3425   47.7135   39.2375 C.3       3 GLC5        0.0000 
     14 CA         -9.4920   49.4720   39.2340 C.3       9 GLL5        0.0000 
     15 CA        -11.1930   45.9550   39.2410 C.3       6 GLP5        0.0000 
     16 CA         -8.4415   50.9705   38.5130 C.3       3 GLC5        0.0000 
     17 CA         -7.3910   52.4690   37.7920 C.3       6 GLP5        0.0000 
     18 O         -10.9420   50.4200   36.7705 O.2       1 ALC1        0.0000 
     19 O         -10.2290   49.4510   37.9610 O.2       7 ALL1        0.0000 
     20 O         -11.6550   51.3890   35.5800 O.2       4 ALP1        0.0000 
     21 N          -8.4830   46.8350   32.8900 N.am      2 SEC2        0.0000 
     22 N          -9.4930   45.5150   32.8900 N.am      8 SEL2        0.0000 
     23 N          -7.4730   48.1550   32.8900 N.am      5 SEP2        0.0000 
     24 CA         -9.8663   49.3375   41.9325 C.3       3 GLC5        0.0000 
     25 CA         -9.3390   50.5690   39.9840 C.3       9 GLL5        0.0000 
     26 CA        -10.5682   51.3950   41.5005 C.3       3 GLC5        0.0000 
     27 CA         -8.4880   50.7530   41.1260 C.3       9 GLL5        0.0000 
     28 CA        -12.2230   52.1290   42.4460 C.3       6 GLP5        0.0000 
     29 CA         -5.8060   51.3035   41.4053 C.3       3 GLC5        0.0000 
     30 CA         -4.4230   52.5290   40.3750 C.3       6 GLP5        0.0000 
     31 CA         -5.9205   52.3695   41.7140 C.3       3 GLC5        0.0000 
     32 CA         -6.9720   51.7510   43.4380 C.3       9 GLL5        0.0000 
     33 CA        -10.2363   52.2673   42.2715 C.3       3 GLC5        0.0000 
     34 CA         -7.8640   52.6690   42.6680 C.3       9 GLL5        0.0000 
     35 CA         -7.9052   54.2122   41.4830 C.3       3 GLC5        0.0000 
     36 CA         -8.6350   52.1420   41.5260 C.3       9 GLL5        0.0000 
     37 CA         -7.5610   56.0190   40.8690 C.3       6 GLP5        0.0000 
     38 CA         -9.0772   53.7777   43.0575 C.3       3 GLC5        0.0000 
     39 CA         -9.9050   55.1500   44.0180 C.3       6 GLP5        0.0000 
     40 CA         -8.0826   51.9353   39.4163 C.3       3 GLC5        0.0000 
     41 CA         -6.4923   51.9883   40.8505 C.3       3 GLC5        0.0000 
     42 CA        -10.4485   46.9330   38.1262 C.3       3 GLC5        0.0000 
     43 CA        -10.2480   48.4250   37.0840 C.3       9 GLL5        0.0000 
     44 CA         -8.2000   49.1720   36.7617 C.3       3 GLC5        0.0000 
     45 CA         -9.1600   47.3970   36.9390 C.3       9 GLL5        0.0000 
     46 CA         -6.6960   50.4330   36.5120 C.3       6 GLP5        0.0000 
     47 CA         -7.4990   47.1073   35.4840 C.3       3 GLC5        0.0000 
     48 CA         -5.7720   47.3500   34.5140 C.3       6 GLP5        0.0000 
     49 CA        -10.5435   46.1247   37.3963 C.3       3 GLC5        0.0000 
     50 CA         -9.2920   46.3320   35.9690 C.3       9 GLL5        0.0000 
     51 CA        -10.3175   47.9020   33.6445 C.3       3 GLC5        0.0000 
     52 CA        -10.4960   46.2570   35.1340 C.3       9 GLL5        0.0000 
     53 CA         -9.6010   49.0370   32.1020 C.3       6 GLP5        0.0000 
     54 CA        -11.3515   46.8873   37.4860 C.3       3 GLC5        0.0000 
     55 CA        -11.5720   47.2770   35.2400 C.3       9 GLL5        0.0000 
     56 CA        -12.1425   49.3648   34.4040 C.3       3 GLC5        0.0000 
     57 CA        -11.4480   48.3620   36.2220 C.3       9 GLL5        0.0000 
     58 CA        -12.7750   50.9100   33.0770 C.3       6 GLP5        0.0000 
@<TRIPOS>BOND
@<TRIPOS>SUBSTRUCTURE
     1 ALC1        1 GROUP        1 X    ALC  0     ROOT ALC X 1
     2 SEC2       10 GROUP        1 X    SEC  0     **** SEC X 2
     3 GLC5        4 GROUP        1 X    GLC  0     **** GLC X 6
     4 ALP1        3 GROUP        1 Y    ALP  0     ROOT ALP Y 8
     5 SEP2       12 GROUP        1 Y    SEP  0     **** SEP Y 9
     6 GLP5        6 GROUP        1 Y    GLP  0     **** GLP Y 13
     7 ALL1        2 GROUP        1 Z    ALL  0     ROOT ALL Z 15
     8 SEL2       11 GROUP        1 Z    SEL  0     **** SEL Z 16
     9 GLL5        5 GROUP        1 Z    GLL  0     **** GLL Z 20
@<TRIPOS>SET

