#    Name: 1ke5_LS1_1_ligand
#    Modification time : Tue Mar 25 09:51:05 2014

@<TRIPOS>MOLECULE
1ke5_LS1_1_ligand
   38    40     1     0     0
SMALL
NO_CHARGES


@<TRIPOS>ATOM
      1 N1         -9.5330   52.7730   40.6960 N.am      1 LS1299      0.0000 
      2 C2         -9.9690   51.9100   39.7440 C.2       1 LS1299      0.0000 
      3 C3         -9.3390   50.5690   39.9840 C.2       1 LS1299      0.0000 
      4 C4         -7.5730   49.8180   41.8530 C.ar      1 LS1299      0.0000 
      5 C5         -6.8050   50.3380   43.0180 C.ar      1 LS1299      0.0000 
      6 C6         -6.9720   51.7510   43.4380 C.ar      1 LS1299      0.0000 
      7 C7         -7.8640   52.6690   42.6680 C.ar      1 LS1299      0.0000 
      8 C8         -8.6350   52.1420   41.5260 C.ar      1 LS1299      0.0000 
      9 C9         -8.4880   50.7530   41.1260 C.ar      1 LS1299      0.0000 
     10 O11       -10.7110   52.1550   38.7830 O.2       1 LS1299      0.0000 
     11 C12        -9.4920   49.4720   39.2340 C.2       1 LS1299      0.0000 
     12 N17       -10.2290   49.4510   37.9610 N.pl3     1 LS1299      0.0000 
     13 C20       -10.2480   48.4250   37.0840 C.ar      1 LS1299      0.0000 
     14 C21        -9.1600   47.3970   36.9390 C.ar      1 LS1299      0.0000 
     15 C22        -9.2920   46.3320   35.9690 C.ar      1 LS1299      0.0000 
     16 C23       -10.4960   46.2570   35.1340 C.ar      1 LS1299      0.0000 
     17 C24       -11.5720   47.2770   35.2400 C.ar      1 LS1299      0.0000 
     18 C25       -11.4480   48.3620   36.2220 C.ar      1 LS1299      0.0000 
     19 S30       -10.4970   45.1020   33.8130 S.o2      1 LS1299      0.0000 
     20 O31        -9.4930   45.5150   32.8900 O.2       1 LS1299      0.0000 
     21 O32       -11.8370   44.9790   33.3220 O.2       1 LS1299      0.0000 
     22 N33       -10.1440   43.5980   34.3930 N.pl3     1 LS1299      0.0000 
     23 C35        -8.9430   43.1360   35.0740 C.3       1 LS1299      0.0000 
     24 H          -9.8068   53.6981   40.7870 H         1 LS1299      0.0000 
     25 H          -7.4834   48.8824   41.5653 H         1 LS1299      0.0000 
     26 H          -6.1833   49.7386   43.5109 H         1 LS1299      0.0000 
     27 H          -6.4866   52.0951   44.2404 H         1 LS1299      0.0000 
     28 H          -7.9318   53.6245   42.9290 H         1 LS1299      0.0000 
     29 H          -9.0836   48.5473   39.5231 H         1 LS1299      0.0000 
     30 H         -10.7768   50.3382   37.7580 H         1 LS1299      0.0000 
     31 H          -8.3526   47.4715   37.5265 H         1 LS1299      0.0000 
     32 H          -8.5695   45.6442   35.8609 H         1 LS1299      0.0000 
     33 H         -12.3690   47.2182   34.6453 H         1 LS1299      0.0000 
     34 H         -12.1620   49.0502   36.3099 H         1 LS1299      0.0000 
     35 H         -10.9349   42.9316   34.2140 H         1 LS1299      0.0000 
     36 H          -8.1282   43.2440   34.5044 H         1 LS1299      0.0000 
     37 H          -8.7780   43.6422   35.9205 H         1 LS1299      0.0000 
     38 H          -9.0036   42.1682   35.3183 H         1 LS1299      0.0000 
@<TRIPOS>BOND
     1    2    1 am   
     2    8    1 1    
     3   24    1 1    
     4    3    2 1    
     5   10    2 2    
     6    9    3 1    
     7   11    3 2    
     8    5    4 ar   
     9    9    4 ar   
    10   25    4 1    
    11    6    5 ar   
    12   26    5 1    
    13    7    6 ar   
    14   27    6 1    
    15    8    7 ar   
    16   28    7 1    
    17    9    8 ar   
    18   12   11 1    
    19   29   11 1    
    20   13   12 1    
    21   30   12 1    
    22   14   13 ar   
    23   18   13 ar   
    24   15   14 ar   
    25   31   14 1    
    26   16   15 ar   
    27   32   15 1    
    28   17   16 ar   
    29   19   16 1    
    30   18   17 ar   
    31   33   17 1    
    32   34   18 1    
    33   20   19 2    
    34   21   19 2    
    35   22   19 1    
    36   23   22 1    
    37   35   22 1    
    38   36   23 1    
    39   37   23 1    
    40   38   23 1    
@<TRIPOS>SUBSTRUCTURE
     1 LS1299      1 GROUP   
@<TRIPOS>SET

