#    Name: 2jed_LG8_2_INTS_M
#    Modification time : Tue Mar 25 20:37:22 2014

@<TRIPOS>MOLECULE
2jed_LG8_2_INTS_M
   76     0     9     0     0
SMALL
NO_CHARGES


@<TRIPOS>ATOM
      1 CA         55.0410  -26.7500  -12.8130 C.3       3 GLC5        0.0000 
      2 CA         54.2230  -27.9170  -11.1810 C.3       9 GLL5        0.0000 
      3 CA         55.8590  -25.5830  -14.4450 C.3       6 GLP5        0.0000 
      4 CA         53.2400  -28.2390  -12.7395 C.3       3 GLC5        0.0000 
      5 CA         52.2570  -28.5610  -14.2980 C.3       6 GLP5        0.0000 
      6 CA         55.9265  -27.4930  -13.2695 C.3       3 GLC5        0.0000 
      7 CA         55.9940  -29.4030  -12.0940 C.3       9 GLL5        0.0000 
      8 N          59.6570  -27.0390  -14.8785 N.am      2 SEC2        0.0000 
      9 N          59.8010  -28.1030  -13.8340 N.am      8 SEL2        0.0000 
     10 N          59.5130  -25.9750  -15.9230 N.am      5 SEP2        0.0000 
     11 O          62.6290  -27.2960  -12.9260 O.2       1 ALC1        0.0000 
     12 O          61.3320  -27.2450  -12.3960 O.2       7 ALL1        0.0000 
     13 O          63.9260  -27.3470  -13.4560 O.2       4 ALP1        0.0000 
     14 N          63.2145  -25.4420  -10.8080 N.am      2 SEC2        0.0000 
     15 N          62.2090  -26.3900  -10.4470 N.am      8 SEL2        0.0000 
     16 N          64.2200  -24.4940  -11.1690 N.am      5 SEP2        0.0000 
     17 CA         61.5730  -28.4715  -10.5300 C.3       3 GLC5        0.0000 
     18 CA         59.9460  -27.1230  -10.5630 C.3       9 GLL5        0.0000 
     19 CA         63.2000  -29.8200  -10.4970 C.3       6 GLP5        0.0000 
     20 CA         59.3780  -29.3805   -8.3895 C.3       3 GLC5        0.0000 
     21 CA         58.5930  -27.4760   -8.2700 C.3       9 GLL5        0.0000 
     22 CA         60.1630  -31.2850   -8.5090 C.3       6 GLP5        0.0000 
     23 CA         61.3025  -26.1765   -5.2895 C.3       3 GLC5        0.0000 
     24 CA         59.9020  -24.7070   -6.2270 C.3       9 GLL5        0.0000 
     25 CA         62.7030  -27.6460   -4.3520 C.3       6 GLP5        0.0000 
     26 CA         57.7030  -24.9715  -11.2765 C.3       3 GLC5        0.0000 
     27 CA         56.4820  -26.1140  -10.5700 C.3       9 GLL5        0.0000 
     28 CA         58.9240  -23.8290  -11.9830 C.3       6 GLP5        0.0000 
     29 CA         56.1705  -25.8485  -12.5075 C.3       3 GLC5        0.0000 
     30 CA         53.1740  -27.8775   -6.9270 C.3       3 GLC5        0.0000 
     31 CA         53.9390  -25.9300   -6.6300 C.3       9 GLL5        0.0000 
     32 CA         52.4090  -29.8250   -7.2240 C.3       6 GLP5        0.0000 
     33 CA         54.1905  -21.9080   -8.0665 C.3       3 GLC5        0.0000 
     34 CA         53.4580  -23.6120   -7.3410 C.3       9 GLL5        0.0000 
     35 CA         54.9230  -20.2040   -8.7920 C.3       6 GLP5        0.0000 
     36 CA         51.6325  -23.0470   -8.1740 C.3       3 GLC5        0.0000 
     37 CA         49.8070  -22.4820   -9.0070 C.3       6 GLP5        0.0000 
     38 CA         53.2032  -28.9595   -9.4977 C.3       3 GLC5        0.0000 
     39 CA         54.1840  -27.0750   -9.8780 C.3       9 GLL5        0.0000 
     40 CA         52.2030  -30.4230   -8.4660 C.3       6 GLP5        0.0000 
     41 CA         58.0667  -25.7985  -11.7123 C.3       3 GLC5        0.0000 
     42 CA         56.6330  -27.4680  -11.2430 C.3       9 GLL5        0.0000 
     43 CA         56.5343  -26.6755  -12.9433 C.3       3 GLC5        0.0000 
     44 CA         54.1755  -31.5550  -11.5465 C.3       3 GLC5        0.0000 
     45 CA         55.2070  -30.4940  -12.5200 C.3       9 GLL5        0.0000 
     46 CA         52.8170  -32.0700  -10.2840 C.3       6 GLP5        0.0000 
     47 CA         56.5060  -33.3825  -12.8193 C.3       3 GLC5        0.0000 
     48 CA         55.8610  -31.5860  -13.0980 C.3       9 GLL5        0.0000 
     49 CA         56.4510  -35.1900  -12.4690 C.3       6 GLP5        0.0000 
     50 CA         54.4719  -29.8611  -14.0708 C.3       3 GLC5        0.0000 
     51 CA         53.2130  -28.9550  -15.4390 C.3       6 GLP5        0.0000 
     52 CA         59.5750  -31.4857  -13.7703 C.3       3 GLC5        0.0000 
     53 CA         57.2610  -31.5640  -13.2410 C.3       9 GLL5        0.0000 
     54 CA         61.5010  -31.9470  -14.5210 C.3       6 GLP5        0.0000 
     55 CA         57.7810  -31.1025  -10.6580 C.3       3 GLC5        0.0000 
     56 CA         58.0370  -30.4850  -12.7980 C.3       9 GLL5        0.0000 
     57 CA         57.8580  -32.2650   -8.8020 C.3       6 GLP5        0.0000 
     58 CA         59.2503  -25.6002  -11.5285 C.3       3 GLC5        0.0000 
     59 CA         59.2070  -27.6200  -11.5850 C.3       9 GLL5        0.0000 
     60 CA         61.1472  -27.5373   -7.7055 C.3       3 GLC5        0.0000 
     61 CA         59.5890  -26.7890   -9.1690 C.3       9 GLL5        0.0000 
     62 CA         62.4510  -28.8060   -6.5950 C.3       6 GLP5        0.0000 
     63 CA         59.3837  -25.0487  -10.3995 C.3       3 GLC5        0.0000 
     64 CA         60.0980  -25.7480   -8.4630 C.3       9 GLL5        0.0000 
     65 CA         58.1497  -30.3417   -7.8125 C.3       3 GLC5        0.0000 
     66 CA         57.7410  -28.5780   -8.3810 C.3       9 GLL5        0.0000 
     67 CA         58.9530  -31.9380   -7.7910 C.3       6 GLP5        0.0000 
     68 CA         56.8055  -29.4452   -4.8803 C.3       3 GLC5        0.0000 
     69 CA         57.0160  -28.1540   -6.1180 C.3       9 GLL5        0.0000 
     70 CA         56.6270  -30.3570   -3.0580 C.3       6 GLP5        0.0000 
     71 CA         56.4433  -23.9042   -9.7793 C.3       3 GLC5        0.0000 
     72 CA         55.1550  -25.0260   -8.6000 C.3       9 GLL5        0.0000 
     73 CA         57.7760  -22.3960  -10.2750 C.3       6 GLP5        0.0000 
     74 CA         59.1153  -28.4275   -5.7856 C.3       3 GLC5        0.0000 
     75 CA         57.8660  -27.0460   -5.9970 C.3       9 GLL5        0.0000 
     76 CA         60.6150  -29.0520   -4.7990 C.3       6 GLP5        0.0000 
@<TRIPOS>BOND
@<TRIPOS>SUBSTRUCTURE
     1 ALC1       11 GROUP        1 X    ALC  0     ROOT ALC X 1
     2 SEC2        8 GROUP        1 X    SEC  0     **** SEC X 2
     3 GLC5        1 GROUP        1 X    GLC  0     **** GLC X 6
     4 ALP1       13 GROUP        1 Y    ALP  0     ROOT ALP Y 8
     5 SEP2       10 GROUP        1 Y    SEP  0     **** SEP Y 9
     6 GLP5        3 GROUP        1 Y    GLP  0     **** GLP Y 13
     7 ALL1       12 GROUP        1 Z    ALL  0     ROOT ALL Z 15
     8 SEL2        9 GROUP        1 Z    SEL  0     **** SEL Z 16
     9 GLL5        2 GROUP        1 Z    GLL  0     **** GLL Z 20
@<TRIPOS>SET

