#    Name: 2jed_LG8_2_ligand
#    Modification time : Tue Mar 25 20:37:22 2014

@<TRIPOS>MOLECULE
2jed_LG8_2_ligand
   63    68     1     0     0
SMALL
NO_CHARGES


@<TRIPOS>ATOM
      1 CBD        54.1840  -27.0750   -9.8780 C.3       1 LG81712     0.0000 
      2 CBB        54.2230  -27.9170  -11.1810 C.3       1 LG81712     0.0000 
      3 NAW        55.6110  -28.2580  -11.5030 N.pl3     1 LG81712     0.0000 
      4 CAV        56.6330  -27.4680  -11.2430 C.2       1 LG81712     0.0000 
      5 CAX        55.9940  -29.4030  -12.0940 C.ar      1 LG81712     0.0000 
      6 CAY        55.2070  -30.4940  -12.5200 C.ar      1 LG81712     0.0000 
      7 CAZ        55.8610  -31.5860  -13.0980 C.ar      1 LG81712     0.0000 
      8 CAP        57.2610  -31.5640  -13.2410 C.ar      1 LG81712     0.0000 
      9 CAO        58.0370  -30.4850  -12.7980 C.ar      1 LG81712     0.0000 
     10 CAN        57.3710  -29.3950  -12.2300 C.ar      1 LG81712     0.0000 
     11 CAM        57.7860  -28.0680  -11.6400 C.2       1 LG81712     0.0000 
     12 CAH        59.2070  -27.6200  -11.5850 C.2       1 LG81712     0.0000 
     13 CAE        60.1220  -27.6960  -12.7340 C.2       1 LG81712     0.0000 
     14 OAF        59.8010  -28.1030  -13.8340 O.2       1 LG81712     0.0000 
     15 NAD        61.3320  -27.2450  -12.3960 N.am      1 LG81712     0.0000 
     16 CAC        61.2850  -26.8620  -11.1100 C.2       1 LG81712     0.0000 
     17 OAB        62.2090  -26.3900  -10.4470 O.2       1 LG81712     0.0000 
     18 CAG        59.9460  -27.1230  -10.5630 C.2       1 LG81712     0.0000 
     19 CAL        59.5890  -26.7890   -9.1690 C.2       1 LG81712     0.0000 
     20 CAU        60.0980  -25.7480   -8.4630 C.2       1 LG81712     0.0000 
     21 CAK        58.5930  -27.4760   -8.2700 C.ar      1 LG81712     0.0000 
     22 CAJ        57.7410  -28.5780   -8.3810 C.ar      1 LG81712     0.0000 
     23 CAI        56.9520  -28.9130   -7.2870 C.ar      1 LG81712     0.0000 
     24 CAQ        57.0160  -28.1540   -6.1180 C.ar      1 LG81712     0.0000 
     25 CAR        57.8660  -27.0460   -5.9970 C.ar      1 LG81712     0.0000 
     26 CAS        58.6630  -26.7220   -7.1040 C.ar      1 LG81712     0.0000 
     27 NAT        59.5650  -25.6980   -7.2570 N.pl3     1 LG81712     0.0000 
     28 CBA        59.9020  -24.7070   -6.2270 C.3       1 LG81712     0.0000 
     29 CBF        55.0660  -25.7990   -9.9670 C.3       1 LG81712     0.0000 
     30 CBG        55.1550  -25.0260   -8.6000 C.3       1 LG81712     0.0000 
     31 NBH        53.9110  -24.9690   -7.7650 N.4       1 LG81712     0.0000 
     32 C6         56.4820  -26.1140  -10.5700 C.3       1 LG81712     0.0000 
     33 CBI        53.9390  -25.9300   -6.6300 C.3       1 LG81712     0.0000 
     34 CBJ        53.4580  -23.6120   -7.3410 C.3       1 LG81712     0.0000 
     35 H          54.5360  -27.6898   -9.0487 H         1 LG81712     0.0000 
     36 H          53.1535  -26.7781   -9.6792 H         1 LG81712     0.0000 
     37 H          53.7676  -27.3256  -11.9729 H         1 LG81712     0.0000 
     38 H          53.6243  -28.8110  -11.0174 H         1 LG81712     0.0000 
     39 H          54.2045  -30.4805  -12.4083 H         1 LG81712     0.0000 
     40 H          55.3290  -32.3984  -13.4165 H         1 LG81712     0.0000 
     41 H          57.7309  -32.3743  -13.6893 H         1 LG81712     0.0000 
     42 H          59.0424  -30.4956  -12.8865 H         1 LG81712     0.0000 
     43 H          62.1073  -27.2002  -12.9714 H         1 LG81712     0.0000 
     44 H          60.7726  -25.1264   -8.8207 H         1 LG81712     0.0000 
     45 H          57.7019  -29.1177   -9.2400 H         1 LG81712     0.0000 
     46 H          56.3185  -29.7220   -7.3368 H         1 LG81712     0.0000 
     47 H          56.4158  -28.4161   -5.3102 H         1 LG81712     0.0000 
     48 H          57.9028  -26.5049   -5.1499 H         1 LG81712     0.0000 
     49 H          54.5671  -25.1123  -10.6861 H         1 LG81712     0.0000 
     50 H          55.5043  -23.9924   -8.8314 H         1 LG81712     0.0000 
     51 H          55.9833  -25.4906   -8.0154 H         1 LG81712     0.0000 
     52 H          53.0672  -25.3665   -8.4558 H         1 LG81712     0.0000 
     53 H          56.7227  -25.3110  -11.2944 H         1 LG81712     0.0000 
     54 H          57.2219  -26.0228   -9.7504 H         1 LG81712     0.0000 
     55 H          60.8709  -24.7408   -5.9820 H         1 LG81712     0.0000 
     56 H          59.7091  -23.7743   -6.5318 H         1 LG81712     0.0000 
     57 H          59.3816  -24.8540   -5.3858 H         1 LG81712     0.0000 
     58 H          54.0294  -26.8747   -6.9453 H         1 LG81712     0.0000 
     59 H          54.7050  -25.7527   -6.0120 H         1 LG81712     0.0000 
     60 H          53.1036  -25.8825   -6.0824 H         1 LG81712     0.0000 
     61 H          54.1491  -23.1454   -6.7890 H         1 LG81712     0.0000 
     62 H          53.2633  -23.0235   -8.1257 H         1 LG81712     0.0000 
     63 H          52.6234  -23.6539   -6.7917 H         1 LG81712     0.0000 
@<TRIPOS>BOND
     1    2    1 1    
     2   29    1 1    
     3   35    1 1    
     4   36    1 1    
     5    3    2 1    
     6   37    2 1    
     7   38    2 1    
     8    4    3 2    
     9    5    3 1    
    10   11    4 1    
    11   32    4 1    
    12    6    5 ar   
    13   10    5 ar   
    14    7    6 ar   
    15   39    6 1    
    16    8    7 ar   
    17   40    7 1    
    18    9    8 ar   
    19   41    8 1    
    20   10    9 ar   
    21   42    9 1    
    22   11   10 1    
    23   12   11 2    
    24   13   12 1    
    25   18   12 1    
    26   14   13 2    
    27   15   13 am   
    28   16   15 am   
    29   43   15 1    
    30   17   16 2    
    31   18   16 1    
    32   19   18 2    
    33   20   19 1    
    34   21   19 1    
    35   27   20 2    
    36   44   20 1    
    37   22   21 ar   
    38   26   21 ar   
    39   23   22 ar   
    40   45   22 1    
    41   24   23 ar   
    42   46   23 1    
    43   25   24 ar   
    44   47   24 1    
    45   26   25 ar   
    46   48   25 1    
    47   27   26 1    
    48   28   27 1    
    49   55   28 1    
    50   56   28 1    
    51   57   28 1    
    52   30   29 1    
    53   32   29 1    
    54   49   29 1    
    55   31   30 1    
    56   50   30 1    
    57   51   30 1    
    58   33   31 1    
    59   34   31 1    
    60   52   31 1    
    61   53   32 1    
    62   54   32 1    
    63   58   33 1    
    64   59   33 1    
    65   60   33 1    
    66   61   34 1    
    67   62   34 1    
    68   63   34 1    
@<TRIPOS>SUBSTRUCTURE
     1 LG81712     1 GROUP   
@<TRIPOS>SET

