#    Name: 1zxl_JP1_1_INTS_M
#    Modification time : Mon Mar 24 17:55:12 2014

@<TRIPOS>MOLECULE
1zxl_JP1_1_INTS_M
   63     0     9     0     0
SMALL
NO_CHARGES


@<TRIPOS>ATOM
      1 CA         51.2245   96.7370   36.1280 C.3       3 GLC5        0.0000 
      2 CA         50.8310   95.0580   34.9620 C.3       9 GLL5        0.0000 
      3 CA         51.6180   98.4160   37.2940 C.3       6 GLP5        0.0000 
      4 CA         50.0065   90.4255   34.5565 C.3       3 GLC5        0.0000 
      5 CA         52.1270   90.9230   34.1070 C.3       9 GLL5        0.0000 
      6 CA         47.8860   89.9280   35.0060 C.3       6 GLP5        0.0000 
      7 CA         53.5270   93.2700   33.2175 C.3       3 GLC5        0.0000 
      8 CA         52.9900   91.6230   33.2780 C.3       9 GLL5        0.0000 
      9 CA         54.0640   94.9170   33.1570 C.3       6 GLP5        0.0000 
     10 CA         59.4885   86.1200   30.8850 C.3       3 GLC5        0.0000 
     11 CA         59.4960   86.5700   33.0630 C.3       9 GLL5        0.0000 
     12 CA         59.4810   85.6700   28.7070 C.3       6 GLP5        0.0000 
     13 CA         58.2140   90.3030   32.2635 C.3       3 GLC5        0.0000 
     14 CA         58.6350   89.2650   33.9440 C.3       9 GLL5        0.0000 
     15 CA         57.7930   91.3410   30.5830 C.3       6 GLP5        0.0000 
     16 N          56.2200   86.1195   32.7290 N.am      2 SEC2        0.0000 
     17 N          55.8170   87.4370   32.7170 N.am      8 SEL2        0.0000 
     18 N          56.6230   84.8020   32.7410 N.am      5 SEP2        0.0000 
     19 N          55.5250   86.7980   31.4040 N.am      2 SEC2        0.0000 
     20 N          55.2330   86.1590   30.0910 N.am      5 SEP2        0.0000 
     21 CA         50.8435   87.9955   34.3435 C.3       3 GLC5        0.0000 
     22 CA         51.3720   88.9100   35.6970 C.3       9 GLL5        0.0000 
     23 CA         50.3150   87.0810   32.9900 C.3       6 GLP5        0.0000 
     24 CA         52.7080   89.4175   36.9640 C.3       3 GLC5        0.0000 
     25 CA         54.0440   89.9250   38.2310 C.3       6 GLP5        0.0000 
     26 CA         49.5510   88.7220   35.6365 C.3       3 GLC5        0.0000 
     27 CA         47.7300   88.5340   35.5760 C.3       6 GLP5        0.0000 
     28 CA         55.0295   91.7200   31.2320 C.3       3 GLC5        0.0000 
     29 CA         54.2610   91.1250   33.0400 C.3       9 GLL5        0.0000 
     30 CA         55.7980   92.3150   29.4240 C.3       6 GLP5        0.0000 
     31 N          48.4215   91.0155   33.1360 N.am      2 SEC2        0.0000 
     32 N          48.8170   92.2300   32.6790 N.am      8 SEL2        0.0000 
     33 N          48.0260   89.8010   33.5930 N.am      5 SEP2        0.0000 
     34 O          48.9640   92.1655   31.4145 O.2       1 ALC1        0.0000 
     35 O          48.8170   92.2300   32.6790 O.2       7 ALL1        0.0000 
     36 O          49.1110   92.1010   30.1500 O.2       4 ALP1        0.0000 
     37 CA         48.2990   97.6970   32.6260 C.3       3 GLC5        0.0000 
     38 CA         49.3000   97.1290   33.8960 C.3       9 GLL5        0.0000 
     39 CA         47.2980   98.2650   31.3560 C.3       6 GLP5        0.0000 
     40 CA         48.7900   98.5560   35.3530 C.3       3 GLC5        0.0000 
     41 CA         48.2800   99.9830   36.8100 C.3       6 GLP5        0.0000 
     42 CA         50.4590   97.7725   35.5950 C.3       3 GLC5        0.0000 
     43 CA         47.9995   96.0115   34.8755 C.3       3 GLC5        0.0000 
     44 CA         46.6990   94.8940   35.8550 C.3       6 GLP5        0.0000 
     45 CA         52.4505   94.0655   33.9250 C.3       3 GLC5        0.0000 
     46 CA         51.1650   93.7070   35.0720 C.3       9 GLL5        0.0000 
     47 CA         48.9447   91.4257   34.4432 C.3       3 GLC5        0.0000 
     48 CA         50.5090   92.7210   34.3140 C.3       9 GLL5        0.0000 
     49 CA         52.0635   94.8183   36.4840 C.3       3 GLC5        0.0000 
     50 CA         53.1290   95.2540   37.9510 C.3       6 GLP5        0.0000 
     51 CA         52.1940   95.0805   33.8432 C.3       3 GLC5        0.0000 
     52 CA         53.6222   89.7005   36.3875 C.3       3 GLC5        0.0000 
     53 CA         52.5610   89.7350   34.6590 C.3       9 GLL5        0.0000 
     54 CA         51.7035   88.4270   33.6980 C.3       3 GLC5        0.0000 
     55 CA         53.8400   89.2170   34.4290 C.3       9 GLL5        0.0000 
     56 CA         59.2023   90.2852   35.4222 C.3       3 GLC5        0.0000 
     57 CA         59.0450   91.5500   36.9610 C.3       6 GLP5        0.0000 
     58 CA         54.9612   92.4300   33.4412 C.3       3 GLC5        0.0000 
     59 CA         54.7020   89.9290   33.5970 C.3       9 GLL5        0.0000 
     60 CA         55.4410   94.3330   33.5640 C.3       6 GLP5        0.0000 
     61 CA         47.6282   93.9950   32.1615 C.3       3 GLC5        0.0000 
     62 CA         49.4980   93.1260   33.4470 C.3       9 GLL5        0.0000 
     63 CA         45.9270   94.1920   30.9250 C.3       6 GLP5        0.0000 
@<TRIPOS>BOND
@<TRIPOS>SUBSTRUCTURE
     1 ALC1       34 GROUP        1 X    ALC  0     ROOT ALC X 1
     2 SEC2       16 GROUP        1 X    SEC  0     **** SEC X 2
     3 GLC5        1 GROUP        1 X    GLC  0     **** GLC X 6
     4 ALP1       36 GROUP        1 Y    ALP  0     ROOT ALP Y 8
     5 SEP2       18 GROUP        1 Y    SEP  0     **** SEP Y 9
     6 GLP5        3 GROUP        1 Y    GLP  0     **** GLP Y 13
     7 ALL1       35 GROUP        1 Z    ALL  0     ROOT ALL Z 15
     8 SEL2       17 GROUP        1 Z    SEL  0     **** SEL Z 16
     9 GLL5        2 GROUP        1 Z    GLL  0     **** GLL Z 20
@<TRIPOS>SET

