#    Name: 1zxl_JP1_1_ligand
#    Modification time : Mon Mar 24 17:55:12 2014

@<TRIPOS>MOLECULE
1zxl_JP1_1_ligand
   41    43     1     0     0
SMALL
NO_CHARGES


@<TRIPOS>ATOM
      1 C2         50.5090   92.7210   34.3140 C.ar      1 JP1500      0.0000 
      2 C3         51.1650   93.7070   35.0720 C.ar      1 JP1500      0.0000 
      3 C4         50.8310   95.0580   34.9620 C.ar      1 JP1500      0.0000 
      4 C5         49.8170   95.4300   34.0970 C.ar      1 JP1500      0.0000 
      5 C10        52.1270   90.9230   34.1070 C.ar      1 JP1500      0.0000 
      6 C11        52.5610   89.7350   34.6590 C.ar      1 JP1500      0.0000 
      7 C12        53.8400   89.2170   34.4290 C.ar      1 JP1500      0.0000 
      8 C15        52.9900   91.6230   33.2780 C.ar      1 JP1500      0.0000 
      9 C19        56.4770   88.3340   33.2050 C.2       1 JP1500      0.0000 
     10 C23        59.4960   86.5700   33.0630 C.3       1 JP1500      0.0000 
     11 C25        60.0840   88.7760   33.8230 C.3       1 JP1500      0.0000 
     12 C26        58.6350   89.2650   33.9440 C.3       1 JP1500      0.0000 
     13 O20        55.8170   87.4370   32.7170 O.2       1 JP1500      0.0000 
     14 N21        57.7310   88.1400   33.6640 N.am      1 JP1500      0.0000 
     15 O24        60.1990   87.7910   32.7940 O.3       1 JP1500      0.0000 
     16 C22        58.2760   86.8070   33.9540 C.3       1 JP1500      0.0000 
     17 N17        55.9720   89.5630   33.2900 N.am      1 JP1500      0.0000 
     18 C13        54.7020   89.9290   33.5970 C.ar      1 JP1500      0.0000 
     19 CL16       51.3720   88.9100   35.6970 Cl        1 JP1500      0.0000 
     20 C14        54.2610   91.1250   33.0400 C.ar      1 JP1500      0.0000 
     21 O9         50.8480   91.3770   34.3990 O.3       1 JP1500      0.0000 
     22 C1         49.4980   93.1260   33.4470 C.ar      1 JP1500      0.0000 
     23 O7         48.8170   92.2300   32.6790 O.3       1 JP1500      0.0000 
     24 C6         49.1610   94.4700   33.3490 C.ar      1 JP1500      0.0000 
     25 CL27       49.3000   97.1290   33.8960 Cl        1 JP1500      0.0000 
     26 H          51.9145   93.4193   35.7274 H         1 JP1500      0.0000 
     27 H          51.3309   95.7571   35.5141 H         1 JP1500      0.0000 
     28 H          54.1304   88.3447   34.8583 H         1 JP1500      0.0000 
     29 H          52.6896   92.5031   32.8441 H         1 JP1500      0.0000 
     30 H          60.1435   85.8359   33.5715 H         1 JP1500      0.0000 
     31 H          59.1427   86.0951   32.1323 H         1 JP1500      0.0000 
     32 H          60.3820   88.3777   34.8031 H         1 JP1500      0.0000 
     33 H          60.7136   89.6535   33.6189 H         1 JP1500      0.0000 
     34 H          58.4848   90.0708   33.2313 H         1 JP1500      0.0000 
     35 H          58.4842   89.6434   34.9510 H         1 JP1500      0.0000 
     36 H          58.5881   86.7330   34.9924 H         1 JP1500      0.0000 
     37 H          57.5414   86.0337   33.7452 H         1 JP1500      0.0000 
     38 H          56.6649   90.3936   33.0873 H         1 JP1500      0.0000 
     39 H          54.9096   91.6624   32.4238 H         1 JP1500      0.0000 
     40 H          48.4017   94.7562   32.7009 H         1 JP1500      0.0000 
     41 H          49.1476   92.3836   31.7478 H         1 JP1500      0.0000 
@<TRIPOS>BOND
     1    2    1 ar   
     2   21    1 1    
     3   22    1 ar   
     4    3    2 ar   
     5   26    2 1    
     6    4    3 ar   
     7   27    3 1    
     8   24    4 ar   
     9   25    4 1    
    10    6    5 ar   
    11    8    5 ar   
    12   21    5 1    
    13    7    6 ar   
    14   19    6 1    
    15   18    7 ar   
    16   28    7 1    
    17   20    8 ar   
    18   29    8 1    
    19   13    9 2    
    20   14    9 am   
    21   17    9 am   
    22   15   10 1    
    23   16   10 1    
    24   30   10 1    
    25   31   10 1    
    26   12   11 1    
    27   15   11 1    
    28   32   11 1    
    29   33   11 1    
    30   14   12 1    
    31   34   12 1    
    32   35   12 1    
    33   16   14 1    
    34   36   16 1    
    35   37   16 1    
    36   18   17 1    
    37   38   17 1    
    38   20   18 ar   
    39   39   20 1    
    40   23   22 1    
    41   24   22 ar   
    42   41   23 1    
    43   40   24 1    
@<TRIPOS>SUBSTRUCTURE
     1 JP1500      1 GROUP   
@<TRIPOS>SET

