#    Name: 3pzb_NAP_2_INTS_M
#    Modification time : Tue Mar 25 08:44:48 2014

@<TRIPOS>MOLECULE
3pzb_NAP_2_INTS_M
   93     0    12     0     0
SMALL
NO_CHARGES


@<TRIPOS>ATOM
      1 N          31.7610   33.4320   26.8770 N.am      2 SEC2        0.0000 
      2 N          32.1390   34.2380   28.0890 N.am     10 SEL2        0.0000 
      3 N          31.3830   32.6260   25.6650 N.am      6 SEP2        0.0000 
      4 N          31.5705   33.4285   29.1165 N.am      2 SEC2        0.0000 
      5 N          31.0020   32.6190   30.1440 N.am      6 SEP2        0.0000 
      6 CA         34.8535   38.9690   24.9825 C.3       4 GLC5        0.0000 
      7 CA         35.2690   37.1690   25.7380 C.3      12 GLL5        0.0000 
      8 CA         34.4380   40.7690   24.2270 C.3       8 GLP5        0.0000 
      9 O          37.2335   34.4940   24.2110 O.2       1 ALC1        0.0000 
     10 O          36.3820   35.5220   24.4200 O.2       9 ALL1        0.0000 
     11 O          38.0850   33.4660   24.0020 O.2       5 ALP1        0.0000 
     12 CA         36.5815   37.8580   23.5270 C.3       4 GLC5        0.0000 
     13 CA         37.3050   38.2320   25.3920 C.3      12 GLL5        0.0000 
     14 CA         35.8580   37.4840   21.6620 C.3       8 GLP5        0.0000 
     15 CA         36.5100   39.5525   24.3940 C.3       4 GLC5        0.0000 
     16 CA         35.7150   40.8730   23.3960 C.3       8 GLP5        0.0000 
     17 CA         39.1670   42.9020   24.3370 C.3       4 GLC5        0.0000 
     18 CA         40.5190   41.9020   25.7310 C.3      12 GLL5        0.0000 
     19 CA         37.8150   43.9020   22.9430 C.3       8 GLP5        0.0000 
     20 CA         40.3515   39.2950   22.5960 C.3       4 GLC5        0.0000 
     21 CA         40.1960   41.1170   23.4940 C.3      12 GLL5        0.0000 
     22 CA         40.5070   37.4730   21.6980 C.3       8 GLP5        0.0000 
     23 CA         41.4900   39.8395   24.0310 C.3       4 GLC5        0.0000 
     24 CA         42.7840   38.5620   24.5680 C.3       8 GLP5        0.0000 
     25 CA         40.9270   41.6695   21.8345 C.3       4 GLC5        0.0000 
     26 CA         41.6580   42.2220   20.1750 C.3       8 GLP5        0.0000 
     27 CA         37.9555   40.9950   23.4450 C.3       4 GLC5        0.0000 
     28 CA         39.0055   42.5095   23.2185 C.3       4 GLC5        0.0000 
     29 CA         37.3520   40.4895   24.3350 C.3       4 GLC5        0.0000 
     30 CA         38.9890   40.1060   25.2740 C.3      12 GLL5        0.0000 
     31 N          29.8400   34.6120   24.9725 N.am      2 SEC2        0.0000 
     32 N          30.3730   35.4550   25.8930 N.am     10 SEL2        0.0000 
     33 N          29.3070   33.7690   24.0520 N.am      6 SEP2        0.0000 
     34 N          31.3015   35.6230   24.7250 N.am      2 SEC2        0.0000 
     35 N          32.2300   35.7910   23.5570 N.am      6 SEP2        0.0000 
     36 CA         30.7875   40.3190   23.8475 C.3       4 GLC5        0.0000 
     37 CA         30.0720   40.3350   25.8330 C.3      12 GLL5        0.0000 
     38 CA         31.5030   40.3030   21.8620 C.3       8 GLP5        0.0000 
     39 N          29.4060   39.4055   23.9770 N.am      2 SEC2        0.0000 
     40 N          28.8690   40.0560   25.1230 N.am     10 SEL2        0.0000 
     41 N          29.9430   38.7550   22.8310 N.am      6 SEP2        0.0000 
     42 O          26.2910   42.5845   27.3655 O.2       1 ALC1        0.0000 
     43 O          27.6120   42.3200   27.5480 O.2       9 ALL1        0.0000 
     44 O          24.9700   42.8490   27.1830 O.2       5 ALP1        0.0000 
     45 CA         27.5610   41.1695   23.5785 C.3       4 GLC5        0.0000 
     46 CA         27.7810   40.7770   25.6830 C.3      12 GLL5        0.0000 
     47 CA         27.3410   41.5620   21.4740 C.3       8 GLP5        0.0000 
     48 N          22.9805   35.0090   27.2585 N.am      2 SEC2        0.0000 
     49 N          23.7570   36.1290   26.8290 N.am     10 SEL2        0.0000 
     50 N          22.2040   33.8890   27.6880 N.am      6 SEP2        0.0000 
     51 O          26.1315   35.1135   28.2475 O.2       1 ALC1        0.0000 
     52 O          26.1120   36.1510   27.3130 O.2       9 ALL1        0.0000 
     53 O          26.1510   34.0760   29.1820 O.2       5 ALP1        0.0000 
     54 CA         22.3745   39.3100   25.3685 C.3       4 GLC5        0.0000 
     55 CA         24.2350   39.8960   24.8610 C.3      12 GLL5        0.0000 
     56 CA         20.5140   38.7240   25.8760 C.3       8 GLP5        0.0000 
     57 CA         26.3970   41.0660   23.2085 C.3       4 GLC5        0.0000 
     58 CA         25.4530   40.5700   24.9430 C.3      12 GLL5        0.0000 
     59 N          41.8545   36.4445   26.1485 N.am      2 SEC2        0.0000 
     60 N          41.1480   35.5380   25.6320 N.am     10 SEL2        0.0000 
     61 N          42.5610   37.3510   26.6650 N.am      6 SEP2        0.0000 
     62 N          41.4575   36.7215   24.6895 N.am      2 SEC2        0.0000 
     63 N          41.7670   37.9050   23.7470 N.am      6 SEP2        0.0000 
     64 N          41.3655   34.1860   25.2935 N.am      2 SEC2        0.0000 
     65 N          41.5830   32.8340   24.9550 N.am      6 SEP2        0.0000 
     66 NZ         40.2995   36.9140   28.5025 N.4       3 LYC4        0.0000 
     67 NZ         39.8210   35.8630   27.6870 N.4      11 LYL4        0.0000 
     68 NZ         41.9020   37.5280   29.8730 N.4       7 LYP4        0.0000 
     69 N          40.9715   36.0410   28.8325 N.am      2 SEC2        0.0000 
     70 N          39.8210   35.8630   27.6870 N.am     10 SEL2        0.0000 
     71 N          42.1220   36.2190   29.9780 N.am      6 SEP2        0.0000 
     72 N          40.2995   36.9140   28.5025 N.am      2 SEC2        0.0000 
     73 N          40.7780   37.9650   29.3180 N.am      6 SEP2        0.0000 
     74 N          38.7130   33.7105   25.1065 N.am      2 SEC2        0.0000 
     75 N          39.3410   33.9550   26.2110 N.am     10 SEL2        0.0000 
     76 N          38.0850   33.4660   24.0020 N.am      6 SEP2        0.0000 
     77 N          40.4620   33.3945   25.5830 N.am      2 SEC2        0.0000 
     78 CA         35.8337   37.0587   23.6920 C.3       4 GLC5        0.0000 
     79 CA         34.6257   34.9116   25.5455 C.3       4 GLC5        0.0000 
     80 CA         33.6490   33.2030   25.0490 C.3       8 GLP5        0.0000 
     81 CA         40.9379   39.6869   25.8263 C.3       4 GLC5        0.0000 
     82 CA         39.5980   40.9610   26.1870 C.3      12 GLL5        0.0000 
     83 CA         42.3520   38.6050   26.0360 C.3       8 GLP5        0.0000 
     84 CA         31.5637   41.9830   26.6747 C.3       4 GLC5        0.0000 
     85 CA         33.2440   43.2030   26.9150 C.3       8 GLP5        0.0000 
     86 CA         22.9070   38.6505   26.6803 C.3       4 GLC5        0.0000 
     87 CA         25.1750   38.0970   26.1630 C.3      12 GLL5        0.0000 
     88 CA         21.1770   38.9260   27.5430 C.3       8 GLP5        0.0000 
     89 CA         26.2404   37.3718   24.9753 C.3       4 GLC5        0.0000 
     90 CA         24.0990   38.6530   25.4720 C.3      12 GLL5        0.0000 
     91 CA         27.5420   36.1940   24.1160 C.3       8 GLP5        0.0000 
     92 CA         24.3355   38.1377   23.7226 C.3       4 GLC5        0.0000 
     93 CA         24.2350   37.1400   22.1060 C.3       8 GLP5        0.0000 
@<TRIPOS>BOND
@<TRIPOS>SUBSTRUCTURE
     1 ALC1        9 GROUP        1 X    ALC  0     ROOT ALC X 1
     2 SEC2        1 GROUP        1 X    SEC  0     **** SEC X 2
     3 LYC4       66 GROUP        1 X    LYC  0     **** LYC X 4
     4 GLC5        6 GROUP        1 X    GLC  0     **** GLC X 6
     5 ALP1       11 GROUP        1 Y    ALP  0     ROOT ALP Y 8
     6 SEP2        3 GROUP        1 Y    SEP  0     **** SEP Y 9
     7 LYP4       68 GROUP        1 Y    LYP  0     **** LYP Y 11
     8 GLP5        8 GROUP        1 Y    GLP  0     **** GLP Y 13
     9 ALL1       10 GROUP        1 Z    ALL  0     ROOT ALL Z 15
    10 SEL2        2 GROUP        1 Z    SEL  0     **** SEL Z 16
    11 LYL4       67 GROUP        1 Z    LYL  0     **** LYL Z 18
    12 GLL5        7 GROUP        1 Z    GLL  0     **** GLL Z 20
@<TRIPOS>SET

