#    Name: 3pzb_NAP_2_ligand
#    Modification time : Tue Mar 25 08:44:48 2014

@<TRIPOS>MOLECULE
3pzb_NAP_2_ligand
   73    77     1     0     0
SMALL
NO_CHARGES


@<TRIPOS>ATOM
      1 PA         32.6070   35.6360   28.1800 P.3       1 NAP368      0.0000 
      2 O1A        33.1330   35.9630   29.5220 O.co2     1 NAP368      0.0000 
      3 O2A        32.1390   34.2380   28.0890 O.co2     1 NAP368      0.0000 
      4 O5B        33.7420   35.8940   27.0710 O.3       1 NAP368      0.0000 
      5 C5B        34.4410   37.1160   27.0180 C.3       1 NAP368      0.0000 
      6 C4B        35.2690   37.1690   25.7380 C.3       1 NAP368      0.0000 
      7 O4B        35.9320   38.4190   25.6700 O.3       1 NAP368      0.0000 
      8 C3B        36.3500   36.0980   25.7060 C.3       1 NAP368      0.0000 
      9 O3B        36.3820   35.5220   24.4200 O.3       1 NAP368      0.0000 
     10 C2B        37.6250   36.8700   25.9800 C.3       1 NAP368      0.0000 
     11 O2B        38.7590   36.2920   25.3810 O.3       1 NAP368      0.0000 
     12 C1B        37.3050   38.2320   25.3920 C.3       1 NAP368      0.0000 
     13 N9A        38.1420   39.2920   25.9810 N.pl3     1 NAP368      0.0000 
     14 C8A        38.2320   39.6450   27.3050 C.2       1 NAP368      0.0000 
     15 N7A        39.1200   40.6590   27.4150 N.2       1 NAP368      0.0000 
     16 C5A        39.5980   40.9610   26.1870 C.ar      1 NAP368      0.0000 
     17 C6A        40.5190   41.9020   25.7310 C.ar      1 NAP368      0.0000 
     18 N6A        41.1180   42.7330   26.5780 N.pl3     1 NAP368      0.0000 
     19 N1A        40.8130   41.9730   24.3840 N.ar      1 NAP368      0.0000 
     20 C2A        40.1960   41.1170   23.4940 C.ar      1 NAP368      0.0000 
     21 N3A        39.2860   40.1820   23.9520 N.ar      1 NAP368      0.0000 
     22 C4A        38.9890   40.1060   25.2740 C.ar      1 NAP368      0.0000 
     23 O3         31.4380   36.6880   27.8030 O.3       1 NAP368      0.0000 
     24 PN         30.1210   36.5310   26.8740 P.3       1 NAP368      0.0000 
     25 O1N        28.9350   36.4180   27.7600 O.co2     1 NAP368      0.0000 
     26 O2N        30.3730   35.4550   25.8930 O.co2     1 NAP368      0.0000 
     27 O5D        29.9920   37.9180   26.0490 O.3       1 NAP368      0.0000 
     28 C5D        30.7990   39.0570   26.2670 C.3       1 NAP368      0.0000 
     29 C4D        30.0720   40.3350   25.8330 C.3       1 NAP368      0.0000 
     30 O4D        28.8690   40.0560   25.1230 O.3       1 NAP368      0.0000 
     31 C3D        29.6950   41.1910   27.0360 C.3       1 NAP368      0.0000 
     32 O3D        30.0940   42.5210   26.8000 O.3       1 NAP368      0.0000 
     33 C2D        28.1830   41.1060   27.1150 C.3       1 NAP368      0.0000 
     34 O2D        27.6120   42.3200   27.5480 O.3       1 NAP368      0.0000 
     35 C1D        27.7810   40.7770   25.6830 C.3       1 NAP368      0.0000 
     36 N1N        26.5100   40.0200   25.6220 N.pl3     1 NAP368      0.0000 
     37 C2N        26.3820   38.7950   26.2310 C.ar      1 NAP368      0.0000 
     38 C3N        25.1750   38.0970   26.1630 C.ar      1 NAP368      0.0000 
     39 C7N        25.0320   36.7430   26.7960 C.2       1 NAP368      0.0000 
     40 O7N        23.7570   36.1290   26.8290 O.2       1 NAP368      0.0000 
     41 N7N        26.1120   36.1510   27.3130 N.am      1 NAP368      0.0000 
     42 C4N        24.0990   38.6530   25.4720 C.ar      1 NAP368      0.0000 
     43 C5N        24.2350   39.8960   24.8610 C.ar      1 NAP368      0.0000 
     44 C6N        25.4530   40.5700   24.9430 C.ar      1 NAP368      0.0000 
     45 P2B        39.7800   35.3970   26.2530 P.3       1 NAP368      0.0000 
     46 O1X        41.1480   35.5380   25.6320 O.co2     1 NAP368      0.0000 
     47 O2X        39.8210   35.8630   27.6870 O.co2     1 NAP368      0.0000 
     48 O3X        39.3410   33.9550   26.2110 O.co2     1 NAP368      0.0000 
     49 H          35.1303   37.2374   27.8630 H         1 NAP368      0.0000 
     50 H          33.7659   37.9809   27.0112 H         1 NAP368      0.0000 
     51 H          34.6220   37.0281   24.8950 H         1 NAP368      0.0000 
     52 H          36.1770   35.4214   26.4870 H         1 NAP368      0.0000 
     53 H          37.7060   36.9941   27.0426 H         1 NAP368      0.0000 
     54 H          37.4697   38.1653   24.3265 H         1 NAP368      0.0000 
     55 H          37.7427   39.2344   28.0215 H         1 NAP368      0.0000 
     56 H          41.7960   43.3520   26.1817 H         1 NAP368      0.0000 
     57 H          40.8365   42.6642   27.5351 H         1 NAP368      0.0000 
     58 H          40.4130   41.1739   22.4875 H         1 NAP368      0.0000 
     59 H          31.7440   39.0100   25.7008 H         1 NAP368      0.0000 
     60 H          31.0669   39.1779   27.3297 H         1 NAP368      0.0000 
     61 H          30.7512   40.9222   25.2195 H         1 NAP368      0.0000 
     62 H          30.1120   40.7606   27.9011 H         1 NAP368      0.0000 
     63 H          27.9322   40.2654   27.7232 H         1 NAP368      0.0000 
     64 H          27.6630   41.7317   25.1648 H         1 NAP368      0.0000 
     65 H          27.1765   38.3805   26.7436 H         1 NAP368      0.0000 
     66 H          25.9611   35.2640   27.7494 H         1 NAP368      0.0000 
     67 H          26.9745   36.6480   27.2172 H         1 NAP368      0.0000 
     68 H          23.2085   38.1453   25.4148 H         1 NAP368      0.0000 
     69 H          23.4487   40.3128   24.3556 H         1 NAP368      0.0000 
     70 H          25.5499   41.4924   24.4842 H         1 NAP368      0.0000 
     71 H          37.0402   34.7723   24.4887 H         1 NAP368      0.0000 
     72 H          29.2428   43.0450   26.7698 H         1 NAP368      0.0000 
     73 H          26.6439   42.2509   27.3072 H         1 NAP368      0.0000 
@<TRIPOS>BOND
     1    2    1 ar   
     2    3    1 ar   
     3    4    1 1    
     4   23    1 1    
     5    5    4 1    
     6    6    5 1    
     7   49    5 1    
     8   50    5 1    
     9    7    6 1    
    10    8    6 1    
    11   51    6 1    
    12   12    7 1    
    13    9    8 1    
    14   10    8 1    
    15   52    8 1    
    16   71    9 1    
    17   11   10 1    
    18   12   10 1    
    19   53   10 1    
    20   45   11 1    
    21   13   12 1    
    22   54   12 1    
    23   14   13 1    
    24   22   13 1    
    25   15   14 2    
    26   55   14 1    
    27   16   15 1    
    28   17   16 ar   
    29   22   16 ar   
    30   18   17 1    
    31   19   17 ar   
    32   56   18 1    
    33   57   18 1    
    34   20   19 ar   
    35   21   20 ar   
    36   58   20 1    
    37   22   21 ar   
    38   24   23 1    
    39   25   24 ar   
    40   26   24 ar   
    41   27   24 1    
    42   28   27 1    
    43   29   28 1    
    44   59   28 1    
    45   60   28 1    
    46   30   29 1    
    47   31   29 1    
    48   61   29 1    
    49   35   30 1    
    50   32   31 1    
    51   33   31 1    
    52   62   31 1    
    53   72   32 1    
    54   34   33 1    
    55   35   33 1    
    56   63   33 1    
    57   73   34 1    
    58   36   35 1    
    59   64   35 1    
    60   37   36 ar   
    61   44   36 ar   
    62   38   37 ar   
    63   65   37 1    
    64   39   38 1    
    65   42   38 ar   
    66   40   39 2    
    67   41   39 am   
    68   66   41 1    
    69   67   41 1    
    70   43   42 ar   
    71   68   42 1    
    72   44   43 ar   
    73   69   43 1    
    74   70   44 1    
    75   46   45 ar   
    76   47   45 ar   
    77   48   45 ar   
@<TRIPOS>SUBSTRUCTURE
     1 NAP368      1 GROUP   
@<TRIPOS>SET

