#    Name: 1cqx_FAD_2_INTS_M
#    Modification time : Mon Mar 24 20:54:24 2014

@<TRIPOS>MOLECULE
1cqx_FAD_2_INTS_M
   92     0    12     0     0
SMALL
NO_CHARGES


@<TRIPOS>ATOM
      1 NZ         23.5065   -9.9280   84.0755 N.4       3 LYC4        0.0000 
      2 NZ         21.9940  -10.0090   84.6190 N.4      11 LYL4        0.0000 
      3 NZ         25.5510   -9.1710   84.5450 N.4       7 LYP4        0.0000 
      4 N          22.7085   -8.4710   84.2540 N.am      2 SEC2        0.0000 
      5 N          21.9940  -10.0090   84.6190 N.am     10 SEL2        0.0000 
      6 N          23.4230   -6.9330   83.8890 N.am      6 SEP2        0.0000 
      7 N          23.5240   -9.6590   85.1960 N.am      2 SEC2        0.0000 
      8 N          25.0540   -9.3090   85.7730 N.am      6 SEP2        0.0000 
      9 N          23.5065   -9.9280   84.0755 N.am      2 SEC2        0.0000 
     10 N          25.0190   -9.8470   83.5320 N.am      6 SEP2        0.0000 
     11 N          22.6980  -13.5680   83.9740 N.am      2 SEC2        0.0000 
     12 N          22.0790  -12.3150   83.6440 N.am     10 SEL2        0.0000 
     13 N          23.3170  -14.8210   84.3040 N.am      6 SEP2        0.0000 
     14 CA         18.5345  -13.4175   87.4605 C.3       4 GLC5        0.0000 
     15 CA         17.7660  -12.4920   85.6160 C.3      12 GLL5        0.0000 
     16 CA         19.3030  -14.3430   89.3050 C.3       8 GLP5        0.0000 
     17 O          16.7785  -12.8090   88.2095 O.2       1 ALC1        0.0000 
     18 O          16.7180  -12.7050   86.5420 O.2       9 ALL1        0.0000 
     19 O          16.8390  -12.9130   89.8770 O.2       5 ALP1        0.0000 
     20 CA         15.0760   -9.0130   80.0425 C.3       4 GLC5        0.0000 
     21 CA         14.4630  -11.0300   79.4210 C.3      12 GLL5        0.0000 
     22 CA         15.6890   -6.9960   80.6640 C.3       8 GLP5        0.0000 
     23 N          22.5430  -13.0715   95.3630 N.am      2 SEC2        0.0000 
     24 N          22.6860  -11.6480   95.1280 N.am     10 SEL2        0.0000 
     25 N          22.4000  -14.4950   95.5980 N.am      6 SEP2        0.0000 
     26 O          24.0520  -11.0650   97.2910 O.2       1 ALC1        0.0000 
     27 O          23.4410  -10.0610   96.5170 O.2       9 ALL1        0.0000 
     28 O          24.6630  -12.0690   98.0650 O.2       5 ALP1        0.0000 
     29 N          25.5670   -7.4000   97.6980 N.am      2 SEC2        0.0000 
     30 N          24.4050   -8.5150   97.8140 N.am     10 SEL2        0.0000 
     31 N          26.7290   -6.2850   97.5820 N.am      6 SEP2        0.0000 
     32 N          25.3580   -6.4020   96.7210 N.am      2 SEC2        0.0000 
     33 N          23.9870   -6.5190   95.8600 N.am     10 SEL2        0.0000 
     34 CA         25.8840   -1.2295   95.1680 C.3       4 GLC5        0.0000 
     35 CA         24.4670   -1.9830   94.4850 C.3      12 GLL5        0.0000 
     36 CA         27.3010   -0.4760   95.8510 C.3       8 GLP5        0.0000 
     37 CA         23.6685   -0.5350   95.5175 C.3       4 GLC5        0.0000 
     38 CA         22.8700    0.9130   96.5500 C.3       8 GLP5        0.0000 
     39 CA         24.2185   -0.9240   91.2765 C.3       4 GLC5        0.0000 
     40 CA         23.1430   -2.6480   91.8450 C.3      12 GLL5        0.0000 
     41 CA         25.2940    0.8000   90.7080 C.3       8 GLP5        0.0000 
     42 CA         21.2980   -2.6050   92.8970 C.3       4 GLC5        0.0000 
     43 CA         19.4530   -2.5620   93.9490 C.3       8 GLP5        0.0000 
     44 O          25.1685   -7.1115   91.9950 O.2       1 ALC1        0.0000 
     45 O          24.2920   -7.2860   91.0000 O.2       9 ALL1        0.0000 
     46 O          26.0450   -6.9370   92.9900 O.2       5 ALP1        0.0000 
     47 CA         24.3080   -8.8315   88.5185 C.3       4 GLC5        0.0000 
     48 CA         23.0640   -9.0370   90.0680 C.3      12 GLL5        0.0000 
     49 CA         25.5520   -8.6260   86.9690 C.3       8 GLP5        0.0000 
     50 N          24.7875  -11.4300   90.8925 N.am      2 SEC2        0.0000 
     51 N          23.3520  -11.3630   90.8800 N.am     10 SEL2        0.0000 
     52 N          26.2230  -11.4970   90.9050 N.am      6 SEP2        0.0000 
     53 N          24.0185  -10.1980   86.8605 N.am      2 SEC2        0.0000 
     54 N          22.9830  -11.0870   87.9480 N.am     10 SEL2        0.0000 
     55 NZ         24.6235  -10.6855   85.9850 N.4       3 LYC4        0.0000 
     56 NZ         24.1930  -12.0620   86.1970 N.4      11 LYL4        0.0000 
     57 N          24.6235  -10.6855   85.9850 N.am      2 SEC2        0.0000 
     58 N          24.1930  -12.0620   86.1970 N.am     10 SEL2        0.0000 
     59 N          25.0535  -13.2105   85.9950 N.am      2 SEC2        0.0000 
     60 N          25.9140  -14.3590   85.7930 N.am      6 SEP2        0.0000 
     61 N          24.0120  -14.1710   88.1525 N.am      2 SEC2        0.0000 
     62 N          22.8340  -13.4530   87.6670 N.am     10 SEL2        0.0000 
     63 N          25.1900  -14.8890   88.6380 N.am      6 SEP2        0.0000 
     64 N          22.6135  -14.5000   88.4825 N.am      2 SEC2        0.0000 
     65 N          22.3930  -15.5470   89.2980 N.am      6 SEP2        0.0000 
     66 CA         19.3615  -13.8972   85.1538 C.3       4 GLC5        0.0000 
     67 CA         21.1420  -14.9800   85.3490 C.3       8 GLP5        0.0000 
     68 CA         16.1638  -10.5337   78.6385 C.3       4 GLC5        0.0000 
     69 CA         15.5640  -11.5670   80.2130 C.3      12 GLL5        0.0000 
     70 CA         17.3140   -9.7690   77.4600 C.3       8 GLP5        0.0000 
     71 CA         15.2274  -13.3909   80.5290 C.3       4 GLC5        0.0000 
     72 CA         15.3040  -11.6870   81.6230 C.3      12 GLL5        0.0000 
     73 CA         15.2960  -15.2890   80.3380 C.3       8 GLP5        0.0000 
     74 CA         25.6630   -6.0977   95.2437 C.3       4 GLC5        0.0000 
     75 CA         23.7560   -5.6160   94.9170 C.3      12 GLL5        0.0000 
     76 CA         27.3590   -7.2290   95.4370 C.3       8 GLP5        0.0000 
     77 CA         22.0825   -4.7348   95.1977 C.3       4 GLC5        0.0000 
     78 CA         20.1980   -4.5030   95.3450 C.3       8 GLP5        0.0000 
     79 CA         25.7557   -3.5029   93.3909 C.3       4 GLC5        0.0000 
     80 CA         27.2260   -4.0950   92.2010 C.3       8 GLP5        0.0000 
     81 CA         22.1011   -3.0891   94.3490 C.3       4 GLC5        0.0000 
     82 CA         23.4140   -3.6630   92.9050 C.3      12 GLL5        0.0000 
     83 CA         20.3710   -3.0110   95.0820 C.3       8 GLP5        0.0000 
     84 CA         25.1774   -4.0791   92.3637 C.3       4 GLC5        0.0000 
     85 CA         21.6253   -4.9935   94.2580 C.3       4 GLC5        0.0000 
     86 CA         22.9790   -4.9710   92.6780 C.3      12 GLL5        0.0000 
     87 CA         24.3455  -10.1659   91.8240 C.3       4 GLC5        0.0000 
     88 CA         23.4640   -8.3560   91.3480 C.3      12 GLL5        0.0000 
     89 CA         25.8500  -10.7650   93.1460 C.3       8 GLP5        0.0000 
     90 CA         20.6452  -11.9913   89.9933 C.3       4 GLC5        0.0000 
     91 CA         22.4180  -10.4370   90.2960 C.3      12 GLL5        0.0000 
     92 CA         19.1490  -13.2710   90.3530 C.3       8 GLP5        0.0000 
@<TRIPOS>BOND
@<TRIPOS>SUBSTRUCTURE
     1 ALC1       17 GROUP        1 X    ALC  0     ROOT ALC X 1
     2 SEC2        4 GROUP        1 X    SEC  0     **** SEC X 2
     3 LYC4        1 GROUP        1 X    LYC  0     **** LYC X 4
     4 GLC5       14 GROUP        1 X    GLC  0     **** GLC X 6
     5 ALP1       19 GROUP        1 Y    ALP  0     ROOT ALP Y 8
     6 SEP2        6 GROUP        1 Y    SEP  0     **** SEP Y 9
     7 LYP4        3 GROUP        1 Y    LYP  0     **** LYP Y 11
     8 GLP5       16 GROUP        1 Y    GLP  0     **** GLP Y 13
     9 ALL1       18 GROUP        1 Z    ALL  0     ROOT ALL Z 15
    10 SEL2        5 GROUP        1 Z    SEL  0     **** SEL Z 16
    11 LYL4        2 GROUP        1 Z    LYL  0     **** LYL Z 18
    12 GLL5       15 GROUP        1 Z    GLL  0     **** GLL Z 20
@<TRIPOS>SET

