#    Name: 1cqx_FAD_2_ligand
#    Modification time : Mon Mar 24 20:54:24 2014

@<TRIPOS>MOLECULE
1cqx_FAD_2_ligand
   83    88     1     0     0
SMALL
NO_CHARGES


@<TRIPOS>ATOM
      1 PA         21.5370  -11.3770   84.5930 P.3       1 FAD405      0.0000 
      2 O1A        21.9940  -10.0090   84.6190 O.co2     1 FAD405      0.0000 
      3 O2A        22.0790  -12.3150   83.6440 O.co2     1 FAD405      0.0000 
      4 O5B        20.0550  -11.4080   84.4570 O.3       1 FAD405      0.0000 
      5 C5B        19.2400  -10.4160   85.1820 C.3       1 FAD405      0.0000 
      6 C4B        17.8320  -10.9610   85.2450 C.3       1 FAD405      0.0000 
      7 O4B        17.2300  -10.8080   83.9540 O.3       1 FAD405      0.0000 
      8 C3B        17.7660  -12.4920   85.6160 C.3       1 FAD405      0.0000 
      9 O3B        16.7180  -12.7050   86.5420 O.3       1 FAD405      0.0000 
     10 C2B        17.3960  -13.1370   84.3010 C.3       1 FAD405      0.0000 
     11 O2B        16.5220  -14.2060   84.6040 O.3       1 FAD405      0.0000 
     12 C1B        16.5860  -12.0520   83.6630 C.3       1 FAD405      0.0000 
     13 N9A        16.4920  -12.1210   82.2110 N.pl3     1 FAD405      0.0000 
     14 C8A        17.4320  -12.3150   81.2120 C.2       1 FAD405      0.0000 
     15 N7A        16.9210  -11.9860   80.0400 N.2       1 FAD405      0.0000 
     16 C5A        15.5640  -11.5670   80.2130 C.ar      1 FAD405      0.0000 
     17 C6A        14.4630  -11.0300   79.4210 C.ar      1 FAD405      0.0000 
     18 N6A        14.4830  -10.7910   78.0780 N.pl3     1 FAD405      0.0000 
     19 N1A        13.2990  -10.7090   80.0740 N.ar      1 FAD405      0.0000 
     20 C2A        13.1980  -10.8590   81.4020 C.ar      1 FAD405      0.0000 
     21 N3A        14.1020  -11.3670   82.2370 N.ar      1 FAD405      0.0000 
     22 C4A        15.3040  -11.6870   81.6230 C.ar      1 FAD405      0.0000 
     23 N1         22.7250   -9.5860   94.2920 N.2       1 FAD405      0.0000 
     24 C2         22.9260  -10.4570   95.2870 C.2       1 FAD405      0.0000 
     25 O2         22.6860  -11.6480   95.1280 O.2       1 FAD405      0.0000 
     26 N3         23.4410  -10.0610   96.5170 N.am      1 FAD405      0.0000 
     27 C4         23.8610   -8.7770   96.7470 C.2       1 FAD405      0.0000 
     28 O4         24.4050   -8.5150   97.8140 O.2       1 FAD405      0.0000 
     29 C4X        23.6640   -7.8120   95.6640 C.2       1 FAD405      0.0000 
     30 N5         23.9870   -6.5190   95.8600 N.2       1 FAD405      0.0000 
     31 C5X        23.7560   -5.6160   94.9170 C.ar      1 FAD405      0.0000 
     32 C6         24.1780   -4.3170   95.1840 C.ar      1 FAD405      0.0000 
     33 C7         24.0300   -3.3600   94.1690 C.ar      1 FAD405      0.0000 
     34 C7M        24.4670   -1.9830   94.4850 C.3       1 FAD405      0.0000 
     35 C8         23.4140   -3.6630   92.9050 C.ar      1 FAD405      0.0000 
     36 C8M        23.1430   -2.6480   91.8450 C.3       1 FAD405      0.0000 
     37 C9         22.9790   -4.9710   92.6780 C.ar      1 FAD405      0.0000 
     38 C9A        23.1260   -5.9970   93.6640 C.ar      1 FAD405      0.0000 
     39 N10        22.7810   -7.3630   93.4450 N.pl3     1 FAD405      0.0000 
     40 C10        23.0590   -8.2780   94.4420 C.2       1 FAD405      0.0000 
     41 C1'        22.2680   -7.8270   92.1530 C.3       1 FAD405      0.0000 
     42 C2'        23.4640   -8.3560   91.3480 C.3       1 FAD405      0.0000 
     43 O2'        24.2920   -7.2860   91.0000 O.3       1 FAD405      0.0000 
     44 C3'        23.0640   -9.0370   90.0680 C.3       1 FAD405      0.0000 
     45 O3'        22.1810   -8.2130   89.3120 O.3       1 FAD405      0.0000 
     46 C4'        22.4180  -10.4370   90.2960 C.3       1 FAD405      0.0000 
     47 O4'        23.3520  -11.3630   90.8800 O.3       1 FAD405      0.0000 
     48 C5'        21.8650  -10.9860   88.9710 C.3       1 FAD405      0.0000 
     49 O5'        22.9830  -11.0870   87.9480 O.3       1 FAD405      0.0000 
     50 P          23.0090  -12.2220   86.9660 P.3       1 FAD405      0.0000 
     51 O1P        24.1930  -12.0620   86.1970 O.co2     1 FAD405      0.0000 
     52 O2P        22.8340  -13.4530   87.6670 O.co2     1 FAD405      0.0000 
     53 O3P        21.7060  -11.9580   86.0410 O.3       1 FAD405      0.0000 
     54 H          19.2318   -9.4715   84.6561 H         1 FAD405      0.0000 
     55 H          19.6124  -10.2779   86.1874 H         1 FAD405      0.0000 
     56 H          17.2685  -10.4259   85.9888 H         1 FAD405      0.0000 
     57 H          18.7051  -12.7952   85.9147 H         1 FAD405      0.0000 
     58 H          18.2190  -13.3590   83.7610 H         1 FAD405      0.0000 
     59 H          15.5956  -12.0437   84.0996 H         1 FAD405      0.0000 
     60 H          18.3318  -12.6481   81.3869 H         1 FAD405      0.0000 
     61 H          12.2534  -10.5207   81.8531 H         1 FAD405      0.0000 
     62 H          23.5059  -10.7697   97.2822 H         1 FAD405      0.0000 
     63 H          24.5782   -4.0663   96.0773 H         1 FAD405      0.0000 
     64 H          22.5368   -5.2187   91.7770 H         1 FAD405      0.0000 
     65 H          21.8148   -7.0176   91.5982 H         1 FAD405      0.0000 
     66 H          21.5591   -8.6331   92.2799 H         1 FAD405      0.0000 
     67 H          23.9961   -9.0695   91.9659 H         1 FAD405      0.0000 
     68 H          23.9851   -9.2198   89.4812 H         1 FAD405      0.0000 
     69 H          21.5625  -10.2833   90.9622 H         1 FAD405      0.0000 
     70 H          21.0941  -10.3162   88.6058 H         1 FAD405      0.0000 
     71 H          21.4393  -11.9681   89.1462 H         1 FAD405      0.0000 
     72 H          25.4382   -1.9464   94.7206 H         1 FAD405      0.0000 
     73 H          24.3292   -1.3631   93.7125 H         1 FAD405      0.0000 
     74 H          23.9628   -1.6020   95.2600 H         1 FAD405      0.0000 
     75 H          23.9830   -2.2054   91.5312 H         1 FAD405      0.0000 
     76 H          22.7093   -3.0565   91.0419 H         1 FAD405      0.0000 
     77 H          22.5344   -1.9244   92.1706 H         1 FAD405      0.0000 
     78 H          17.1582  -12.6863   87.4397 H         1 FAD405      0.0000 
     79 H          16.3041  -14.0951   85.5737 H         1 FAD405      0.0000 
     80 H          15.4175  -10.4937   77.8821 H         1 FAD405      0.0000 
     81 H          24.9465   -7.2101   91.7522 H         1 FAD405      0.0000 
     82 H          22.3447   -8.4653   88.3583 H         1 FAD405      0.0000 
     83 H          22.9747  -12.2683   90.6853 H         1 FAD405      0.0000 
@<TRIPOS>BOND
     1    2    1 ar   
     2    3    1 ar   
     3    4    1 1    
     4   53    1 1    
     5    5    4 1    
     6    6    5 1    
     7   54    5 1    
     8   55    5 1    
     9    7    6 1    
    10    8    6 1    
    11   56    6 1    
    12   12    7 1    
    13    9    8 1    
    14   10    8 1    
    15   57    8 1    
    16   78    9 1    
    17   11   10 1    
    18   12   10 1    
    19   58   10 1    
    20   79   11 1    
    21   13   12 1    
    22   59   12 1    
    23   14   13 1    
    24   22   13 1    
    25   15   14 2    
    26   60   14 1    
    27   16   15 1    
    28   17   16 ar   
    29   22   16 ar   
    30   18   17 1    
    31   19   17 ar   
    32   80   18 1    
    33   20   19 ar   
    34   21   20 ar   
    35   61   20 1    
    36   22   21 ar   
    37   24   23 1    
    38   40   23 2    
    39   25   24 2    
    40   26   24 am   
    41   27   26 am   
    42   62   26 1    
    43   28   27 2    
    44   29   27 1    
    45   30   29 2    
    46   40   29 1    
    47   31   30 1    
    48   32   31 ar   
    49   38   31 ar   
    50   33   32 ar   
    51   63   32 1    
    52   34   33 1    
    53   35   33 ar   
    54   72   34 1    
    55   73   34 1    
    56   74   34 1    
    57   36   35 1    
    58   37   35 ar   
    59   75   36 1    
    60   76   36 1    
    61   77   36 1    
    62   38   37 ar   
    63   64   37 1    
    64   39   38 1    
    65   40   39 1    
    66   41   39 1    
    67   42   41 1    
    68   65   41 1    
    69   66   41 1    
    70   43   42 1    
    71   44   42 1    
    72   67   42 1    
    73   81   43 1    
    74   45   44 1    
    75   46   44 1    
    76   68   44 1    
    77   82   45 1    
    78   47   46 1    
    79   48   46 1    
    80   69   46 1    
    81   83   47 1    
    82   49   48 1    
    83   70   48 1    
    84   71   48 1    
    85   50   49 1    
    86   51   50 ar   
    87   52   50 ar   
    88   53   50 1    
@<TRIPOS>SUBSTRUCTURE
     1 FAD405      1 GROUP   
@<TRIPOS>SET

