#    Name: 4egk_RDC_1_INTS_M
#    Modification time : Mon Mar 24 17:47:42 2014

@<TRIPOS>MOLECULE
4egk_RDC_1_INTS_M
   65     0     9     0     0
SMALL
NO_CHARGES


@<TRIPOS>ATOM
      1 CA          9.5240   -2.6490   13.4450 C.3       3 GLC5        0.0000 
      2 CA          8.4740   -4.3470   12.8230 C.3       9 GLL5        0.0000 
      3 CA         10.5740   -0.9510   14.0670 C.3       6 GLP5        0.0000 
      4 CA          8.2585   -4.0930   11.0200 C.3       3 GLC5        0.0000 
      5 CA          8.0430   -3.8390    9.2170 C.3       6 GLP5        0.0000 
      6 CA          5.6140   -6.7425   12.1705 C.3       3 GLC5        0.0000 
      7 CA          7.0540   -6.1740   13.4710 C.3       9 GLL5        0.0000 
      8 CA          4.1740   -7.3110   10.8700 C.3       6 GLP5        0.0000 
      9 CA         11.6365   -7.6790   11.4765 C.3       3 GLC5        0.0000 
     10 CA         10.5340   -7.6940   12.9460 C.3       9 GLL5        0.0000 
     11 CA         12.7390   -7.6640   10.0070 C.3       6 GLP5        0.0000 
     12 CA         11.2680   -2.5340   15.1915 C.3       3 GLC5        0.0000 
     13 CA         11.9620   -4.1170   16.3160 C.3       9 GLL5        0.0000 
     14 CA         12.3570   -2.1685   15.3785 C.3       3 GLC5        0.0000 
     15 CA         13.3060   -4.1320   15.6500 C.3       9 GLL5        0.0000 
     16 CA         11.4080   -0.2050   15.1070 C.3       6 GLP5        0.0000 
     17 CA         14.9050   -3.1375   16.3130 C.3       3 GLC5        0.0000 
     18 CA         16.5040   -2.1430   16.9760 C.3       6 GLP5        0.0000 
     19 CA         14.7745   -2.3105   15.1040 C.3       3 GLC5        0.0000 
     20 CA         13.4970   -3.5130   14.2810 C.3       9 GLL5        0.0000 
     21 CA         16.0520   -1.1080   15.9270 C.3       6 GLP5        0.0000 
     22 N          10.2805   -3.9920   10.1690 N.am      2 SEC2        0.0000 
     23 N          11.0890   -4.1030   11.3170 N.am      8 SEL2        0.0000 
     24 N           9.4720   -3.8810    9.0210 N.am      5 SEP2        0.0000 
     25 O           7.5985   -2.4020   12.3675 O.2       1 ALC1        0.0000 
     26 O           8.6860   -3.0770   12.5250 O.2       7 ALL1        0.0000 
     27 O           6.5110   -1.7270   12.2100 O.2       4 ALP1        0.0000 
     28 O           4.9090   -5.7850   13.7925 O.2       1 ALC1        0.0000 
     29 O           5.8860   -6.6580   13.8170 O.2       7 ALL1        0.0000 
     30 O           3.9320   -4.9120   13.7680 O.2       4 ALP1        0.0000 
     31 CA          7.7130   -7.2745   15.2805 C.3       3 GLC5        0.0000 
     32 CA          7.8160   -8.7690   13.6470 C.3       9 GLL5        0.0000 
     33 CA          7.6100   -5.7800   16.9140 C.3       6 GLP5        0.0000 
     34 CA          8.7330  -10.6145   12.9960 C.3       3 GLC5        0.0000 
     35 CA          9.6500  -12.4600   12.3450 C.3       6 GLP5        0.0000 
     36 CA          6.9125  -10.2080   13.5960 C.3       3 GLC5        0.0000 
     37 CA          6.0090  -11.6470   13.5450 C.3       6 GLP5        0.0000 
     38 N          14.2255   -2.7225   17.3440 N.am      2 SEC2        0.0000 
     39 N          12.9390   -3.1480   16.5840 N.am      8 SEL2        0.0000 
     40 N          15.5120   -2.2970   18.1040 N.am      5 SEP2        0.0000 
     41 CA         10.3272   -6.6360   11.0888 C.3       3 GLC5        0.0000 
     42 CA          9.6170   -5.2340   12.7290 C.3       9 GLL5        0.0000 
     43 CA         11.1130   -7.3260    9.3070 C.3       6 GLP5        0.0000 
     44 CA          8.5047   -5.5975   11.0787 C.3       3 GLC5        0.0000 
     45 CA          9.4660   -6.6580   13.0120 C.3       9 GLL5        0.0000 
     46 CA          7.4680   -5.2490    9.2870 C.3       6 GLP5        0.0000 
     47 CA          7.7367   -5.1885   14.9675 C.3       3 GLC5        0.0000 
     48 CA          7.2492   -3.0650   14.3070 C.3       3 GLC5        0.0000 
     49 CA          7.2530   -4.8470   13.2190 C.3       9 GLL5        0.0000 
     50 CA          6.6350   -1.5330   15.5930 C.3       6 GLP5        0.0000 
     51 CA          7.3108   -5.3797   11.3160 C.3       3 GLC5        0.0000 
     52 CA          8.0717   -6.2127   15.0614 C.3       3 GLC5        0.0000 
     53 CA          9.4358   -6.3428   16.6602 C.3       3 GLC5        0.0000 
     54 CA         11.0670   -6.7990   15.8270 C.3       9 GLL5        0.0000 
     55 CA          9.8535   -4.5765   17.3122 C.3       3 GLC5        0.0000 
     56 CA         11.8860   -5.1510   17.4050 C.3       9 GLL5        0.0000 
     57 CA          7.7830   -4.5190   17.7640 C.3       6 GLP5        0.0000 
     58 CA         11.5680   -3.2575   18.0588 C.3       3 GLC5        0.0000 
     59 CA         11.2120   -1.8810   19.2570 C.3       6 GLP5        0.0000 
     60 CA         11.9515   -2.4675   13.8872 C.3       3 GLC5        0.0000 
     61 CA         13.8930   -2.2150   12.9057 C.3       3 GLC5        0.0000 
     62 CA         14.4570   -0.4460   12.1040 C.3       6 GLP5        0.0000 
     63 CA         13.6230   -5.6113   11.3095 C.3       3 GLC5        0.0000 
     64 CA         13.1610   -4.4550   13.1340 C.3       9 GLL5        0.0000 
     65 CA         13.6330   -6.1650    9.4900 C.3       6 GLP5        0.0000 
@<TRIPOS>BOND
@<TRIPOS>SUBSTRUCTURE
     1 ALC1       25 GROUP        1 X    ALC  0     ROOT ALC X 1
     2 SEC2       22 GROUP        1 X    SEC  0     **** SEC X 2
     3 GLC5        1 GROUP        1 X    GLC  0     **** GLC X 6
     4 ALP1       27 GROUP        1 Y    ALP  0     ROOT ALP Y 8
     5 SEP2       24 GROUP        1 Y    SEP  0     **** SEP Y 9
     6 GLP5        3 GROUP        1 Y    GLP  0     **** GLP Y 13
     7 ALL1       26 GROUP        1 Z    ALL  0     ROOT ALL Z 15
     8 SEL2       23 GROUP        1 Z    SEL  0     **** SEL Z 16
     9 GLL5        2 GROUP        1 Z    GLL  0     **** GLL Z 20
@<TRIPOS>SET

