#    Name: 4egk_RDC_1_ligand
#    Modification time : Mon Mar 24 17:47:43 2014

@<TRIPOS>MOLECULE
4egk_RDC_1_ligand
   42    44     1     0     0
SMALL
NO_CHARGES


@<TRIPOS>ATOM
      1 C1         10.8980   -4.6510   12.3330 C.2       1 RDC301      0.0000 
      2 C2          9.6170   -5.2340   12.7290 C.ar      1 RDC301      0.0000 
      3 C3          8.4740   -4.3470   12.8230 C.ar      1 RDC301      0.0000 
      4 C4          7.2530   -4.8470   13.2190 C.ar      1 RDC301      0.0000 
      5 C5          7.0540   -6.1740   13.4710 C.ar      1 RDC301      0.0000 
      6 C6          8.1480   -7.0920   13.3400 C.ar      1 RDC301      0.0000 
      7 C7          9.4660   -6.6580   13.0120 C.ar      1 RDC301      0.0000 
      8 C8         10.5340   -7.6940   12.9460 C.3       1 RDC301      0.0000 
      9 C9         10.7640   -8.6000   14.1420 C.2       1 RDC301      0.0000 
     10 C10        11.0650   -8.0570   15.4750 C.2       1 RDC301      0.0000 
     11 C11        11.0670   -6.7990   15.8270 C.2       1 RDC301      0.0000 
     12 C12        11.4570   -6.3830   17.1620 C.2       1 RDC301      0.0000 
     13 C13        11.8860   -5.1510   17.4050 C.2       1 RDC301      0.0000 
     14 C14        11.9620   -4.1170   16.3160 C.3       1 RDC301      0.0000 
     15 C15        13.3060   -4.1320   15.6500 C.3       1 RDC301      0.0000 
     16 C16        13.4970   -3.5130   14.2810 C.3       1 RDC301      0.0000 
     17 C17        13.1610   -4.4550   13.1340 C.3       1 RDC301      0.0000 
     18 C18        14.0650   -5.6600   13.1240 C.3       1 RDC301      0.0000 
     19 O1         11.8430   -4.9020   13.3370 O.3       1 RDC301      0.0000 
     20 O2         11.0890   -4.1030   11.3170 O.2       1 RDC301      0.0000 
     21 O3          8.6860   -3.0770   12.5250 O.3       1 RDC301      0.0000 
     22 O4          5.8860   -6.6580   13.8170 O.3       1 RDC301      0.0000 
     23 CL1         7.8160   -8.7690   13.6470 Cl        1 RDC301      0.0000 
     24 O5         10.8400   -9.7440   13.9710 O.2       1 RDC301      0.0000 
     25 O6         12.9390   -3.1480   16.5840 O.3       1 RDC301      0.0000 
     26 H           6.4492   -4.1790   13.3296 H         1 RDC301      0.0000 
     27 H          11.5174   -7.1911   12.6992 H         1 RDC301      0.0000 
     28 H          10.3504   -8.3524   12.0439 H         1 RDC301      0.0000 
     29 H          11.3014   -8.8275   16.1944 H         1 RDC301      0.0000 
     30 H          10.7919   -6.0268   15.1783 H         1 RDC301      0.0000 
     31 H          11.3792   -7.1050   17.9067 H         1 RDC301      0.0000 
     32 H          12.1911   -4.8211   18.3358 H         1 RDC301      0.0000 
     33 H          11.3227   -3.8503   15.7347 H         1 RDC301      0.0000 
     34 H          13.8530   -4.7813   16.0576 H         1 RDC301      0.0000 
     35 H          14.5438   -3.1819   14.1760 H         1 RDC301      0.0000 
     36 H          12.8660   -2.6121   14.1996 H         1 RDC301      0.0000 
     37 H          13.2602   -3.9257   12.2127 H         1 RDC301      0.0000 
     38 H          15.0260   -5.4025   13.0235 H         1 RDC301      0.0000 
     39 H          13.9899   -6.1877   13.9701 H         1 RDC301      0.0000 
     40 H          13.8477   -6.2811   12.3710 H         1 RDC301      0.0000 
     41 H           7.8959   -2.5889   12.8959 H         1 RDC301      0.0000 
     42 H           5.2538   -5.8869   13.7416 H         1 RDC301      0.0000 
@<TRIPOS>BOND
     1    2    1 1    
     2   19    1 1    
     3   20    1 2    
     4    3    2 ar   
     5    7    2 ar   
     6    4    3 ar   
     7   21    3 1    
     8    5    4 ar   
     9   26    4 1    
    10    6    5 ar   
    11   22    5 1    
    12    7    6 ar   
    13   23    6 1    
    14    8    7 1    
    15    9    8 1    
    16   27    8 1    
    17   28    8 1    
    18   10    9 1    
    19   24    9 2    
    20   11   10 2    
    21   29   10 1    
    22   12   11 1    
    23   30   11 1    
    24   13   12 2    
    25   31   12 1    
    26   14   13 1    
    27   32   13 1    
    28   15   14 1    
    29   25   14 1    
    30   33   14 1    
    31   16   15 1    
    32   25   15 1    
    33   34   15 1    
    34   17   16 1    
    35   35   16 1    
    36   36   16 1    
    37   18   17 1    
    38   19   17 1    
    39   37   17 1    
    40   38   18 1    
    41   39   18 1    
    42   40   18 1    
    43   41   21 1    
    44   42   22 1    
@<TRIPOS>SUBSTRUCTURE
     1 RDC301      1 GROUP   
@<TRIPOS>SET

