#    Name: 4k9d_NAD_4_INTS_M
#    Modification time : Tue Mar 25 07:25:49 2014

@<TRIPOS>MOLECULE
4k9d_NAD_4_INTS_M
   72     0     9     0     0
SMALL
NO_CHARGES


@<TRIPOS>ATOM
      1 N          -7.8995   46.0605   15.0940 N.am      2 SEC2        0.0000 
      2 N          -6.6110   46.2370   14.4930 N.am      8 SEL2        0.0000 
      3 N          -9.1880   45.8840   15.6950 N.am      5 SEP2        0.0000 
      4 CA         -7.5410   51.7860   17.2960 C.3       3 GLC5        0.0000 
      5 CA         -6.4110   50.6820   15.8840 C.3       9 GLL5        0.0000 
      6 CA         -8.6710   52.8900   18.7080 C.3       6 GLP5        0.0000 
      7 CA         -6.7230   51.1225   12.2640 C.3       3 GLC5        0.0000 
      8 CA         -6.5060   51.0540   14.4100 C.3       9 GLL5        0.0000 
      9 CA         -6.9400   51.1910   10.1180 C.3       6 GLP5        0.0000 
     10 O          -8.6125   52.2160   14.4755 O.2       1 ALC1        0.0000 
     11 O          -7.8820   51.0070   14.0100 O.2       7 ALL1        0.0000 
     12 O          -9.3430   53.4250   14.9410 O.2       4 ALP1        0.0000 
     13 CA         -5.4490   54.3025   13.4025 C.3       3 GLC5        0.0000 
     14 CA         -5.9360   52.4650   14.3380 C.3       9 GLL5        0.0000 
     15 CA         -4.9620   56.1400   12.4670 C.3       6 GLP5        0.0000 
     16 O          -7.5460   54.2300   13.6455 O.2       1 ALC1        0.0000 
     17 O          -6.6020   53.2940   13.3770 O.2       7 ALL1        0.0000 
     18 O          -8.4900   55.1660   13.9140 O.2       4 ALP1        0.0000 
     19 O          -7.9725   53.3595   14.1590 O.2       1 ALC1        0.0000 
     20 CA         -7.3870   52.9385   17.2320 C.3       3 GLC5        0.0000 
     21 CA         -6.1030   52.9870   15.7560 C.3       9 GLL5        0.0000 
     22 CA         -4.1065   54.5165   18.5605 C.3       3 GLC5        0.0000 
     23 CA         -4.1190   55.8810   16.9550 C.3       9 GLL5        0.0000 
     24 CA         -4.0940   53.1520   20.1660 C.3       6 GLP5        0.0000 
     25 CA         -4.7090   55.5595   19.2015 C.3       3 GLC5        0.0000 
     26 CA         -4.1410   57.1130   17.7850 C.3       9 GLL5        0.0000 
     27 CA         -5.2770   54.0060   20.6180 C.3       6 GLP5        0.0000 
     28 O          -3.1435   59.3795   18.5245 O.2       1 ALC1        0.0000 
     29 O          -3.0520   57.9100   17.9070 O.2       7 ALL1        0.0000 
     30 O          -3.2350   60.8490   19.1420 O.2       4 ALP1        0.0000 
     31 CA         -7.5285   54.7555   18.5160 C.3       3 GLC5        0.0000 
     32 CA         -6.3860   56.6210   18.3240 C.3       9 GLL5        0.0000 
     33 CA         -8.1295   56.7290   17.0870 C.3       3 GLC5        0.0000 
     34 CA         -9.8730   56.8370   15.8500 C.3       6 GLP5        0.0000 
     35 CA         -6.8285   57.3755   16.8570 C.3       3 GLC5        0.0000 
     36 CA         -7.2710   58.1300   15.3900 C.3       6 GLP5        0.0000 
     37 CA         -5.8315   55.3135   19.4710 C.3       3 GLC5        0.0000 
     38 CA         -7.0140   53.9875   17.7995 C.3       3 GLC5        0.0000 
     39 CA         -5.3570   55.0850   16.8910 C.3       9 GLL5        0.0000 
     40 CA         -5.3170   54.5455   18.7545 C.3       3 GLC5        0.0000 
     41 N          -8.1950   45.3830   17.8770 N.am      2 SEC2        0.0000 
     42 N          -6.9150   45.8130   17.4060 N.am      8 SEL2        0.0000 
     43 N          -9.4750   44.9530   18.3480 N.am      5 SEP2        0.0000 
     44 CA         -5.7555   44.1140   21.0335 C.3       3 GLC5        0.0000 
     45 CA         -3.7800   44.2710   21.5180 C.3       9 GLL5        0.0000 
     46 CA         -7.7310   43.9570   20.5490 C.3       6 GLP5        0.0000 
     47 CA         -2.6860   45.0670   23.3025 C.3       3 GLC5        0.0000 
     48 CA         -1.5920   45.8630   25.0870 C.3       6 GLP5        0.0000 
     49 CA         -6.1715   43.1770   20.3445 C.3       3 GLC5        0.0000 
     50 CA         -4.6120   42.3970   20.1400 C.3       9 GLL5        0.0000 
     51 N          -5.7305   38.0160   18.1610 N.am      2 SEC2        0.0000 
     52 N          -5.5230   39.2450   18.6740 N.am      8 SEL2        0.0000 
     53 N          -5.9380   36.7870   17.6480 N.am      5 SEP2        0.0000 
     54 CA         -6.2310   43.1285   21.5095 C.3       3 GLC5        0.0000 
     55 CA         -4.7310   42.3000   22.4700 C.3       9 GLL5        0.0000 
     56 CA         -7.7597   49.4515   15.3606 C.3       3 GLC5        0.0000 
     57 CA         -5.4470   49.5180   16.0930 C.3       9 GLL5        0.0000 
     58 CA         -9.3020   48.3260   15.5220 C.3       6 GLP5        0.0000 
     59 CA         -6.0072   56.9605   16.2602 C.3       3 GLC5        0.0000 
     60 CA         -6.1400   45.2850   20.3182 C.3       3 GLC5        0.0000 
     61 CA         -4.9000   46.7770   19.4310 C.3       9 GLL5        0.0000 
     62 CA         -2.4188   47.9742   20.6838 C.3       3 GLC5        0.0000 
     63 CA         -4.1980   46.4490   20.7440 C.3       9 GLL5        0.0000 
     64 CA         -1.3800   49.6530   20.7070 C.3       6 GLP5        0.0000 
     65 CA         -5.1620   39.0957   22.6270 C.3       3 GLC5        0.0000 
     66 CA         -5.5600   40.4550   21.2130 C.3       9 GLL5        0.0000 
     67 CA         -4.8830   37.4420   23.4260 C.3       6 GLP5        0.0000 
     68 CA         -6.9635   40.0187   23.1160 C.3       3 GLC5        0.0000 
     69 CA         -5.3220   41.0440   22.4430 C.3       9 GLL5        0.0000 
     70 CA         -8.4860   39.2880   24.4040 C.3       6 GLP5        0.0000 
     71 CA         -6.8514   41.7556   21.1629 C.3       3 GLC5        0.0000 
     72 CA         -8.3500   42.5930   20.7870 C.3       6 GLP5        0.0000 
@<TRIPOS>BOND
@<TRIPOS>SUBSTRUCTURE
     1 ALC1       10 GROUP        1 X    ALC  0     ROOT ALC X 1
     2 SEC2        1 GROUP        1 X    SEC  0     **** SEC X 2
     3 GLC5        4 GROUP        1 X    GLC  0     **** GLC X 6
     4 ALP1       12 GROUP        1 Y    ALP  0     ROOT ALP Y 8
     5 SEP2        3 GROUP        1 Y    SEP  0     **** SEP Y 9
     6 GLP5        6 GROUP        1 Y    GLP  0     **** GLP Y 13
     7 ALL1       11 GROUP        1 Z    ALL  0     ROOT ALL Z 15
     8 SEL2        2 GROUP        1 Z    SEL  0     **** SEL Z 16
     9 GLL5        5 GROUP        1 Z    GLL  0     **** GLL Z 20
@<TRIPOS>SET

