#    Name: 4k9d_NAD_4_ligand
#    Modification time : Tue Mar 25 07:25:49 2014

@<TRIPOS>MOLECULE
4k9d_NAD_4_ligand
   70    74     1     0     0
SMALL
NO_CHARGES


@<TRIPOS>ATOM
      1 PA         -5.4990   47.0970   15.0240 P.3       1 NAD500      0.0000 
      2 O1A        -4.4330   47.6470   14.1050 O.co2     1 NAD500      0.0000 
      3 O2A        -6.6110   46.2370   14.4930 O.co2     1 NAD500      0.0000 
      4 O5B        -6.1510   48.3040   15.8700 O.3       1 NAD500      0.0000 
      5 C5B        -5.4470   49.5180   16.0930 C.3       1 NAD500      0.0000 
      6 C4B        -6.4110   50.6820   15.8840 C.3       1 NAD500      0.0000 
      7 O4B        -5.9610   51.8400   16.5950 O.3       1 NAD500      0.0000 
      8 C3B        -6.5060   51.0540   14.4100 C.3       1 NAD500      0.0000 
      9 O3B        -7.8820   51.0070   14.0100 O.3       1 NAD500      0.0000 
     10 C2B        -5.9360   52.4650   14.3380 C.3       1 NAD500      0.0000 
     11 O2B        -6.6020   53.2940   13.3770 O.3       1 NAD500      0.0000 
     12 C1B        -6.1030   52.9870   15.7560 C.3       1 NAD500      0.0000 
     13 N9A        -5.1060   54.0430   16.0960 N.pl3     1 NAD500      0.0000 
     14 C8A        -3.8290   54.1400   15.6630 C.2       1 NAD500      0.0000 
     15 N7A        -3.2240   55.2440   16.1790 N.2       1 NAD500      0.0000 
     16 C5A        -4.1190   55.8810   16.9550 C.ar      1 NAD500      0.0000 
     17 C6A        -4.1410   57.1130   17.7850 C.ar      1 NAD500      0.0000 
     18 N6A        -3.0520   57.9100   17.9070 N.pl3     1 NAD500      0.0000 
     19 N1A        -5.2930   57.4050   18.4310 N.ar      1 NAD500      0.0000 
     20 C2A        -6.3860   56.6210   18.3240 C.ar      1 NAD500      0.0000 
     21 N3A        -6.4400   55.4980   17.5860 N.ar      1 NAD500      0.0000 
     22 C4A        -5.3570   55.0850   16.8910 C.ar      1 NAD500      0.0000 
     23 O3         -4.7250   46.3070   16.1870 O.3       1 NAD500      0.0000 
     24 PN         -5.4850   45.3580   17.2340 P.3       1 NAD500      0.0000 
     25 O1N        -5.1370   43.9370   16.8470 O.co2     1 NAD500      0.0000 
     26 O2N        -6.9150   45.8130   17.4060 O.co2     1 NAD500      0.0000 
     27 O5D        -4.6180   45.7070   18.5410 O.3       1 NAD500      0.0000 
     28 C5D        -4.9000   46.7770   19.4310 C.3       1 NAD500      0.0000 
     29 C4D        -4.1980   46.4490   20.7440 C.3       1 NAD500      0.0000 
     30 O4D        -4.7890   45.2480   21.2440 O.3       1 NAD500      0.0000 
     31 C3D        -2.7170   46.1420   20.5770 C.3       1 NAD500      0.0000 
     32 O3D        -2.0310   46.6050   21.7460 O.3       1 NAD500      0.0000 
     33 C2D        -2.6150   44.6360   20.6140 C.3       1 NAD500      0.0000 
     34 O2D        -1.3790   44.2940   21.2420 O.3       1 NAD500      0.0000 
     35 C1D        -3.7800   44.2710   21.5180 C.3       1 NAD500      0.0000 
     36 N1N        -4.3720   42.9400   21.3470 N.pl3     1 NAD500      0.0000 
     37 C2N        -4.6120   42.3970   20.1400 C.ar      1 NAD500      0.0000 
     38 C3N        -5.2070   41.1300   20.0560 C.ar      1 NAD500      0.0000 
     39 C7N        -5.4780   40.4720   18.7320 C.2       1 NAD500      0.0000 
     40 O7N        -5.5230   39.2450   18.6740 O.2       1 NAD500      0.0000 
     41 N7N        -5.6520   41.2530   17.6620 N.am      1 NAD500      0.0000 
     42 C4N        -5.5600   40.4550   21.2130 C.ar      1 NAD500      0.0000 
     43 C5N        -5.3220   41.0440   22.4430 C.ar      1 NAD500      0.0000 
     44 C6N        -4.7310   42.3000   22.4700 C.ar      1 NAD500      0.0000 
     45 H          -4.6154   49.6438   15.3963 H         1 NAD500      0.0000 
     46 H          -5.0577   49.5853   17.1112 H         1 NAD500      0.0000 
     47 H          -7.3918   50.3838   16.2175 H         1 NAD500      0.0000 
     48 H          -5.8835   50.3999   13.8618 H         1 NAD500      0.0000 
     49 H          -4.8775   52.3763   14.1529 H         1 NAD500      0.0000 
     50 H          -7.1064   53.3845   15.8384 H         1 NAD500      0.0000 
     51 H          -3.3937   53.5039   15.0593 H         1 NAD500      0.0000 
     52 H          -3.1573   58.7120   18.4950 H         1 NAD500      0.0000 
     53 H          -2.2394   57.6256   17.3983 H         1 NAD500      0.0000 
     54 H          -7.2653   56.9131   18.8615 H         1 NAD500      0.0000 
     55 H          -5.9614   46.8741   19.6337 H         1 NAD500      0.0000 
     56 H          -4.5119   47.7241   19.0710 H         1 NAD500      0.0000 
     57 H          -4.3226   47.2474   21.4302 H         1 NAD500      0.0000 
     58 H          -2.3578   46.5125   19.6951 H         1 NAD500      0.0000 
     59 H          -2.7583   44.2496   19.6724 H         1 NAD500      0.0000 
     60 H          -3.4511   44.4062   22.5529 H         1 NAD500      0.0000 
     61 H          -4.3694   42.8888   19.2662 H         1 NAD500      0.0000 
     62 H          -5.8056   40.7817   16.7935 H         1 NAD500      0.0000 
     63 H          -5.6130   42.2387   17.8257 H         1 NAD500      0.0000 
     64 H          -5.9939   39.5268   21.1584 H         1 NAD500      0.0000 
     65 H          -5.5736   40.5691   23.3081 H         1 NAD500      0.0000 
     66 H          -4.5687   42.7454   23.4075 H         1 NAD500      0.0000 
     67 H          -8.2797   51.8589   14.3508 H         1 NAD500      0.0000 
     68 H          -7.1932   53.8927   13.9174 H         1 NAD500      0.0000 
     69 H          -1.4618   45.8349   22.0340 H         1 NAD500      0.0000 
     70 H          -1.6387   43.8475   22.0983 H         1 NAD500      0.0000 
@<TRIPOS>BOND
     1    2    1 ar   
     2    3    1 ar   
     3    4    1 1    
     4   23    1 1    
     5    5    4 1    
     6    6    5 1    
     7   45    5 1    
     8   46    5 1    
     9    7    6 1    
    10    8    6 1    
    11   47    6 1    
    12   12    7 1    
    13    9    8 1    
    14   10    8 1    
    15   48    8 1    
    16   67    9 1    
    17   11   10 1    
    18   12   10 1    
    19   49   10 1    
    20   68   11 1    
    21   13   12 1    
    22   50   12 1    
    23   14   13 1    
    24   22   13 1    
    25   15   14 2    
    26   51   14 1    
    27   16   15 1    
    28   17   16 ar   
    29   22   16 ar   
    30   18   17 1    
    31   19   17 ar   
    32   52   18 1    
    33   53   18 1    
    34   20   19 ar   
    35   21   20 ar   
    36   54   20 1    
    37   22   21 ar   
    38   24   23 1    
    39   25   24 ar   
    40   26   24 ar   
    41   27   24 1    
    42   28   27 1    
    43   29   28 1    
    44   55   28 1    
    45   56   28 1    
    46   30   29 1    
    47   31   29 1    
    48   57   29 1    
    49   35   30 1    
    50   32   31 1    
    51   33   31 1    
    52   58   31 1    
    53   69   32 1    
    54   34   33 1    
    55   35   33 1    
    56   59   33 1    
    57   70   34 1    
    58   36   35 1    
    59   60   35 1    
    60   37   36 ar   
    61   44   36 ar   
    62   38   37 ar   
    63   61   37 1    
    64   39   38 1    
    65   42   38 ar   
    66   40   39 2    
    67   41   39 am   
    68   62   41 1    
    69   63   41 1    
    70   43   42 ar   
    71   64   42 1    
    72   44   43 ar   
    73   65   43 1    
    74   66   44 1    
@<TRIPOS>SUBSTRUCTURE
     1 NAD500      1 GROUP   
@<TRIPOS>SET

