#    Name: 1xef_ATP_3_INTS_M
#    Modification time : Mon Apr  7 15:16:15 2014

@<TRIPOS>MOLECULE
1xef_ATP_3_INTS_M
   74     0    15     0     0
SMALL
NO_CHARGES


@<TRIPOS>ATOM
      1 N          19.9235   37.5845    4.2425 N.am      2 SEC2        0.0000 
      2 N          19.6020   38.8500    4.6130 N.am     12 SEL2        0.0000 
      3 N          20.2450   36.3190    3.8720 N.am      7 SEP2        0.0000 
      4 N          18.4540   38.2315    5.0765 N.am      2 SEC2        0.0000 
      5 N          17.3060   37.6130    5.5400 N.am      7 SEP2        0.0000 
      6 N          18.8920   39.1005    3.4845 N.am      2 SEC2        0.0000 
      7 N          18.1820   39.3510    2.3560 N.am      7 SEP2        0.0000 
      8 NZ         22.7280   39.8435    6.4560 N.4       3 LYC4        0.0000 
      9 NZ         21.7690   39.8250    5.4610 N.4      13 LYL4        0.0000 
     10 NZ         23.6870   39.8620    7.4510 N.4       8 LYP4        0.0000 
     11 N          22.7280   39.8435    6.4560 N.am      2 SEC2        0.0000 
     12 N          21.7690   39.8250    5.4610 N.am     12 SEL2        0.0000 
     13 N          23.6870   39.8620    7.4510 N.am      7 SEP2        0.0000 
     14 Zn         19.4650   41.9500    6.0805 Zn        4 ZIC7        0.0000 
     15 Zn         19.6200   41.1910    5.5390 Zn       14 ZIL7        0.0000 
     16 Zn         19.3100   42.7090    6.6220 Zn        9 ZIP7        0.0000 
     17 NZ         22.5165   39.7410    8.2405 N.4       3 LYC4        0.0000 
     18 NZ         21.3460   39.6200    9.0300 N.4      13 LYL4        0.0000 
     19 N          21.3260   38.0365    9.4500 N.am      2 SEC2        0.0000 
     20 N          21.3460   39.6200    9.0300 N.am     12 SEL2        0.0000 
     21 N          21.3060   36.4530    9.8700 N.am      7 SEP2        0.0000 
     22 N          21.1060   38.9435   10.4510 N.am      2 SEC2        0.0000 
     23 N          20.8660   38.2670   11.8720 N.am      7 SEP2        0.0000 
     24 N          21.4110   40.2895   10.3485 N.am      2 SEC2        0.0000 
     25 N          21.4760   40.9590   11.6670 N.am      7 SEP2        0.0000 
     26 N          22.5165   39.7410    8.2405 N.am      2 SEC2        0.0000 
     27 Zn         19.4550   42.0565    7.4350 Zn        4 ZIC7        0.0000 
     28 Zn         19.6000   41.4040    8.2480 Zn       14 ZIL7        0.0000 
     29 N          19.8305   42.3760    9.4490 N.am      2 SEC2        0.0000 
     30 N          19.6000   41.4040    8.2480 N.am     12 SEL2        0.0000 
     31 N          20.0610   43.3480   10.6500 N.am      7 SEP2        0.0000 
     32 N          20.2160   37.8800    7.1015 N.am      2 SEC2        0.0000 
     33 N          19.9290   39.1970    6.9850 N.am     12 SEL2        0.0000 
     34 N          20.5030   36.5630    7.2180 N.am      7 SEP2        0.0000 
     35 N          17.9285   41.9010   11.7735 N.am      2 SEC2        0.0000 
     36 N          18.0200   40.5280   11.1580 N.am     12 SEL2        0.0000 
     37 N          17.8370   43.2740   12.3890 N.am      7 SEP2        0.0000 
     38 N          17.0690   40.7795   12.0895 N.am      2 SEC2        0.0000 
     39 N          16.1180   41.0310   13.0210 N.am      7 SEP2        0.0000 
     40 N          19.8765   38.7105   10.5450 N.am      2 SEC2        0.0000 
     41 N          18.8870   39.1540    9.2180 N.am     12 SEL2        0.0000 
     42 CA         16.8510   37.6310   12.9765 C.3       5 GLC5        0.0000 
     43 CA         17.1600   37.5070   11.0940 C.3      15 GLL5        0.0000 
     44 CA         16.5420   37.7550   14.8590 C.3      10 GLP5        0.0000 
     45 CA         18.3650   36.7755    9.6560 C.3       5 GLC5        0.0000 
     46 CA         19.5700   36.0440    8.2180 C.3      10 GLP5        0.0000 
     47 CA         18.7265   38.3515   11.9700 C.3       5 GLC5        0.0000 
     48 CA         20.2930   39.1960   12.8460 C.3      10 GLP5        0.0000 
     49 CA         15.3705   35.7955   12.9095 C.3       5 GLC5        0.0000 
     50 CA         16.0780   36.4370   11.2410 C.3      15 GLL5        0.0000 
     51 CA         14.6630   35.1540   14.5780 C.3      10 GLP5        0.0000 
     52 CA         17.6785   35.8835    9.0740 C.3       5 GLC5        0.0000 
     53 CA         15.7870   35.7230    9.9300 C.3      15 GLL5        0.0000 
     54 CA         13.2025   36.9025    7.8305 C.3       5 GLC5        0.0000 
     55 CA         14.4350   36.2440    9.4820 C.3      15 GLL5        0.0000 
     56 CA         11.9700   37.5610    6.1790 C.3      10 GLP5        0.0000 
     57 CA         15.5770   37.3855    7.9655 C.3       5 GLC5        0.0000 
     58 CA         16.7190   38.5270    6.4490 C.3      10 GLP5        0.0000 
     59 O          14.3170   35.2170    7.5710 O.2       1 ALC1        0.0000 
     60 O          13.6600   35.2440    8.8160 O.2      11 ALL1        0.0000 
     61 O          14.9740   35.1900    6.3260 O.2       6 ALP1        0.0000 
     62 CA         13.2770   38.1325   12.2475 C.3       5 GLC5        0.0000 
     63 CA         13.7760   36.6840   10.7780 C.3      15 GLL5        0.0000 
     64 CA         12.7780   39.5810   13.7170 C.3      10 GLP5        0.0000 
     65 CA         14.2195   35.9190   12.6780 C.3       5 GLC5        0.0000 
     66 CA          9.6090   39.0700   13.1150 C.3       5 GLC5        0.0000 
     67 CA          9.7530   39.6210   10.9540 C.3      15 GLL5        0.0000 
     68 CA          9.4650   38.5190   15.2760 C.3      10 GLP5        0.0000 
     69 CA          9.4745   37.9805   13.5540 C.3       5 GLC5        0.0000 
     70 CA          9.4840   37.4420   11.8320 C.3      15 GLL5        0.0000 
     71 CA          9.1085   38.1355    9.7835 C.3       5 GLC5        0.0000 
     72 CA          8.7330   38.8290    7.7350 C.3      10 GLP5        0.0000 
     73 CA          9.8871   38.7618    9.3116 C.3       5 GLC5        0.0000 
     74 CA         11.1620   39.2870   10.6330 C.3      15 GLL5        0.0000 
@<TRIPOS>BOND
@<TRIPOS>SUBSTRUCTURE
     1 ALC1       59 GROUP        1 X    ALC  0     ROOT ALC X 1
     2 SEC2        1 GROUP        1 X    SEC  0     **** SEC X 2
     3 LYC4        8 GROUP        1 X    LYC  0     **** LYC X 4
     4 ZIC7       14 GROUP        1 X    ZIC  0     **** ZIC X 5
     5 GLC5       42 GROUP        1 X    GLC  0     **** GLC X 6
     6 ALP1       61 GROUP        1 Y    ALP  0     ROOT ALP Y 8
     7 SEP2        3 GROUP        1 Y    SEP  0     **** SEP Y 9
     8 LYP4       10 GROUP        1 Y    LYP  0     **** LYP Y 11
     9 ZIP7       16 GROUP        1 Y    ZIP  0     **** ZIP Y 12
    10 GLP5       44 GROUP        1 Y    GLP  0     **** GLP Y 13
    11 ALL1       60 GROUP        1 Z    ALL  0     ROOT ALL Z 15
    12 SEL2        2 GROUP        1 Z    SEL  0     **** SEL Z 16
    13 LYL4        9 GROUP        1 Z    LYL  0     **** LYL Z 18
    14 ZIL7       15 GROUP        1 Z    ZIL  0     **** ZIL Z 19
    15 GLL5       43 GROUP        1 Z    GLL  0     **** GLL Z 20
@<TRIPOS>SET

