#    Name: 1xef_ATP_3_ligand
#    Modification time : Mon Apr  7 15:16:15 2014

@<TRIPOS>MOLECULE
1xef_ATP_3_ligand
   43    45     1     0     0
SMALL
NO_CHARGES


@<TRIPOS>ATOM
      1 PG         20.2640   39.8290    5.5430 P.3       1 ATP2800     0.0000 
      2 O1G        19.6020   38.8500    4.6130 O.co2     1 ATP2800     0.0000 
      3 O2G        21.7690   39.8250    5.4610 O.co2     1 ATP2800     0.0000 
      4 O3G        19.6200   41.1910    5.5390 O.co2     1 ATP2800     0.0000 
      5 PB         20.0180   39.9590    8.4020 P.3       1 ATP2800     0.0000 
      6 O1B        21.3460   39.6200    9.0300 O.co2     1 ATP2800     0.0000 
      7 O2B        19.6000   41.4040    8.2480 O.co2     1 ATP2800     0.0000 
      8 O3B        19.9290   39.1970    6.9850 O.3       1 ATP2800     0.0000 
      9 PA         17.5950   39.8440    9.8840 P.3       1 ATP2800     0.0000 
     10 O1A        16.8550   40.6450    8.8450 O.co2     1 ATP2800     0.0000 
     11 O2A        18.0200   40.5280   11.1580 O.co2     1 ATP2800     0.0000 
     12 O3A        18.8870   39.1540    9.2180 O.3       1 ATP2800     0.0000 
     13 O5'        16.6830   38.5720   10.2670 O.3       1 ATP2800     0.0000 
     14 C5'        17.1600   37.5070   11.0940 C.3       1 ATP2800     0.0000 
     15 C4'        16.0780   36.4370   11.2410 C.3       1 ATP2800     0.0000 
     16 O4'        14.8410   37.0180   11.6740 O.3       1 ATP2800     0.0000 
     17 C3'        15.7870   35.7230    9.9300 C.3       1 ATP2800     0.0000 
     18 O3'        15.6970   34.3220   10.1970 O.3       1 ATP2800     0.0000 
     19 C2'        14.4350   36.2440    9.4820 C.3       1 ATP2800     0.0000 
     20 O2'        13.6600   35.2440    8.8160 O.3       1 ATP2800     0.0000 
     21 C1'        13.7760   36.6840   10.7780 C.3       1 ATP2800     0.0000 
     22 N9         12.9010   37.8680   10.6040 N.pl3     1 ATP2800     0.0000 
     23 C8         13.2510   39.0530   10.0670 C.2       1 ATP2800     0.0000 
     24 N7         12.2080   39.9220   10.0740 N.2       1 ATP2800     0.0000 
     25 C5         11.1620   39.2870   10.6330 C.ar      1 ATP2800     0.0000 
     26 C6          9.7530   39.6210   10.9540 C.ar      1 ATP2800     0.0000 
     27 N6          9.2410   40.8410   10.6660 N.pl3     1 ATP2800     0.0000 
     28 N1          8.9940   38.6650   11.5400 N.ar      1 ATP2800     0.0000 
     29 C2          9.4840   37.4420   11.8320 C.ar      1 ATP2800     0.0000 
     30 N3         10.7530   37.0740   11.5700 N.ar      1 ATP2800     0.0000 
     31 C4         11.6250   37.9350   10.9830 C.ar      1 ATP2800     0.0000 
     32 H          17.4205   37.8592   12.0991 H         1 ATP2800     0.0000 
     33 H          18.0483   37.0275   10.6659 H         1 ATP2800     0.0000 
     34 H          16.4142   35.6970   11.9556 H         1 ATP2800     0.0000 
     35 H          16.5172   35.9747    9.2276 H         1 ATP2800     0.0000 
     36 H          14.5977   37.1183    8.8864 H         1 ATP2800     0.0000 
     37 H          13.2106   35.8566   11.1676 H         1 ATP2800     0.0000 
     38 H          14.1429   39.2661    9.7148 H         1 ATP2800     0.0000 
     39 H           8.2774   40.9791   10.8951 H         1 ATP2800     0.0000 
     40 H           9.8718   41.4958   10.2497 H         1 ATP2800     0.0000 
     41 H           8.8353   36.7344   12.2917 H         1 ATP2800     0.0000 
     42 H          14.9149   34.0060    9.6599 H         1 ATP2800     0.0000 
     43 H          14.0427   35.1919    7.8936 H         1 ATP2800     0.0000 
@<TRIPOS>BOND
     1    2    1 ar   
     2    3    1 ar   
     3    4    1 ar   
     4    8    1 1    
     5    6    5 ar   
     6    7    5 ar   
     7    8    5 1    
     8   12    5 1    
     9   10    9 ar   
    10   11    9 ar   
    11   12    9 1    
    12   13    9 1    
    13   14   13 1    
    14   15   14 1    
    15   32   14 1    
    16   33   14 1    
    17   16   15 1    
    18   17   15 1    
    19   34   15 1    
    20   21   16 1    
    21   18   17 1    
    22   19   17 1    
    23   35   17 1    
    24   42   18 1    
    25   20   19 1    
    26   21   19 1    
    27   36   19 1    
    28   43   20 1    
    29   22   21 1    
    30   37   21 1    
    31   23   22 1    
    32   31   22 1    
    33   24   23 2    
    34   38   23 1    
    35   25   24 1    
    36   26   25 ar   
    37   31   25 ar   
    38   27   26 1    
    39   28   26 ar   
    40   39   27 1    
    41   40   27 1    
    42   29   28 ar   
    43   30   29 ar   
    44   41   29 1    
    45   31   30 ar   
@<TRIPOS>SUBSTRUCTURE
     1 ATP2800     1 GROUP   
@<TRIPOS>SET

