#    Name: 1ovm_TPP_2_INTS_M
#    Modification time : Mon Mar 24 20:38:49 2014

@<TRIPOS>MOLECULE
1ovm_TPP_2_INTS_M
   87     0    12     0     0
SMALL
NO_CHARGES


@<TRIPOS>ATOM
      1 CA         51.8655   37.0860   44.5595 C.3       4 GLC5        0.0000 
      2 CA         51.8650   35.8350   45.8700 C.3      12 GLL5        0.0000 
      3 CA         51.8660   38.3370   43.2490 C.3       8 GLP5        0.0000 
      4 CA         52.3410   36.0455   43.6635 C.3       4 GLC5        0.0000 
      5 CA         52.0310   34.6430   45.0420 C.3      12 GLL5        0.0000 
      6 CA         52.6510   37.4480   42.2850 C.3       8 GLP5        0.0000 
      7 CA         54.0580   35.4505   44.6535 C.3       4 GLC5        0.0000 
      8 CA         56.0850   36.2580   44.2650 C.3       8 GLP5        0.0000 
      9 N          54.3165   36.1495   46.2690 N.am      2 SEC2        0.0000 
     10 N          52.8630   36.7360   45.9490 N.am     10 SEL2        0.0000 
     11 N          55.7700   35.5630   46.5890 N.am      6 SEP2        0.0000 
     12 CA         54.4280   37.0790   45.4985 C.3       4 GLC5        0.0000 
     13 CA         52.7710   37.9000   46.7320 C.3      12 GLL5        0.0000 
     14 CA         54.0490   37.3265   47.9745 C.3       4 GLC5        0.0000 
     15 CA         55.3270   36.7530   49.2170 C.3       8 GLP5        0.0000 
     16 O          54.9160   38.7605   45.9800 O.2       1 ALC1        0.0000 
     17 O          53.8360   38.7040   46.7250 O.2       9 ALL1        0.0000 
     18 O          55.9960   38.8170   45.2350 O.2       5 ALP1        0.0000 
     19 CA         49.0035   36.2270   47.9675 C.3       4 GLC5        0.0000 
     20 CA         50.4040   37.0830   47.3320 C.3      12 GLL5        0.0000 
     21 CA         47.6030   35.3710   48.6030 C.3       8 GLP5        0.0000 
     22 CA         49.6725   40.3865   48.4370 C.3       4 GLC5        0.0000 
     23 CA         51.1990   39.4090   48.4190 C.3      12 GLL5        0.0000 
     24 CA         48.1460   41.3640   48.4550 C.3       8 GLP5        0.0000 
     25 CA         56.2545   39.4935   50.0565 C.3       4 GLC5        0.0000 
     26 CA         54.2810   39.8840   51.0280 C.3      12 GLL5        0.0000 
     27 CA         58.2280   39.1030   49.0850 C.3       8 GLP5        0.0000 
     28 CA         48.7055   38.0510   51.6695 C.3       4 GLC5        0.0000 
     29 CA         50.8080   37.9030   51.0080 C.3      12 GLL5        0.0000 
     30 CA         46.6030   38.1990   52.3310 C.3       8 GLP5        0.0000 
     31 CA         50.6410   37.6845   53.1605 C.3       4 GLC5        0.0000 
     32 CA         50.4740   37.4660   55.3130 C.3       8 GLP5        0.0000 
     33 CA         53.0875   36.6305   51.5660 C.3       4 GLC5        0.0000 
     34 CA         53.1910   38.2570   53.0200 C.3      12 GLL5        0.0000 
     35 CA         52.9840   35.0040   50.1120 C.3       8 GLP5        0.0000 
     36 CA         51.9605   39.7830   53.1835 C.3       4 GLC5        0.0000 
     37 CA         50.7300   41.3090   53.3470 C.3       8 GLP5        0.0000 
     38 CA         54.9465   37.3450   51.3245 C.3       4 GLC5        0.0000 
     39 CA         54.5660   37.9370   53.4320 C.3      12 GLL5        0.0000 
     40 N          55.8555   34.1810   53.9070 N.am      2 SEC2        0.0000 
     41 N          56.5270   35.4180   54.3330 N.am     10 SEL2        0.0000 
     42 N          55.1840   32.9440   53.4810 N.am      6 SEP2        0.0000 
     43 Zn         55.4600   36.0460   57.4745 Zn        3 ZIC7        0.0000 
     44 Zn         55.1100   36.0020   56.3510 Zn       11 ZIL7        0.0000 
     45 Zn         55.8100   36.0900   58.5980 Zn        7 ZIP7        0.0000 
     46 N          54.8665   34.4705   56.2880 N.am      2 SEC2        0.0000 
     47 N          55.1100   36.0020   56.3510 N.am     10 SEL2        0.0000 
     48 N          54.6230   32.9390   56.2250 N.am      6 SEP2        0.0000 
     49 N          59.0990   38.6615   57.6680 N.am      2 SEC2        0.0000 
     50 N          58.0200   38.0620   57.3200 N.am     10 SEL2        0.0000 
     51 N          60.1780   39.2610   58.0160 N.am      6 SEP2        0.0000 
     52 N          57.6795   38.0265   58.9240 N.am      2 SEC2        0.0000 
     53 N          57.3390   37.9910   60.5280 N.am      6 SEP2        0.0000 
     54 N          58.3420   40.3255   55.9890 N.am      2 SEC2        0.0000 
     55 N          56.8980   40.0050   56.4180 N.am     10 SEL2        0.0000 
     56 N          59.7860   40.6460   55.5600 N.am      6 SEP2        0.0000 
     57 N          56.5715   40.6545   57.8925 N.am      2 SEC2        0.0000 
     58 N          56.2450   41.3040   59.3670 N.am      6 SEP2        0.0000 
     59 N          55.7395   41.0985   56.6280 N.am      2 SEC2        0.0000 
     60 N          54.5810   42.1920   56.8380 N.am      6 SEP2        0.0000 
     61 Zn         55.6865   37.3305   58.2335 Zn        3 ZIC7        0.0000 
     62 Zn         55.5630   38.5710   57.8690 Zn       11 ZIL7        0.0000 
     63 N          56.4510   38.2810   59.1985 N.am      2 SEC2        0.0000 
     64 N          55.5630   38.5710   57.8690 N.am     10 SEL2        0.0000 
     65 N          54.5570   39.2965   58.1290 N.am      2 SEC2        0.0000 
     66 N          53.5510   40.0220   58.3890 N.am      6 SEP2        0.0000 
     67 N          55.9040   39.9375   58.6180 N.am      2 SEC2        0.0000 
     68 CA         52.8980   35.0015   47.1710 C.3       4 GLC5        0.0000 
     69 CA         53.8480   34.7640   48.8860 C.3       8 GLP5        0.0000 
     70 CA         51.9870   33.5850   46.7465 C.3       4 GLC5        0.0000 
     71 CA         52.0260   31.9310   48.0370 C.3       8 GLP5        0.0000 
     72 CA         51.9870   38.1932   45.1902 C.3       4 GLC5        0.0000 
     73 CA         49.8552   38.5435   46.0027 C.3       4 GLC5        0.0000 
     74 CA         51.4450   38.1990   47.5310 C.3      12 GLL5        0.0000 
     75 CA         48.7860   39.4460   44.5740 C.3       8 GLP5        0.0000 
     76 CA         51.9543   36.3225   48.7717 C.3       4 GLC5        0.0000 
     77 CA         54.3940   40.3907   52.7957 C.3       4 GLC5        0.0000 
     78 CA         55.1160   41.4050   54.2520 C.3       8 GLP5        0.0000 
     79 CA         52.2010   40.3427   52.3432 C.3       4 GLC5        0.0000 
     80 CA         54.3855   38.0890   50.1004 C.3       4 GLC5        0.0000 
     81 CA         53.0630   38.8690   51.6510 C.3      12 GLL5        0.0000 
     82 CA         52.2000   36.6582   50.4973 C.3       4 GLC5        0.0000 
     83 CA         52.0240   38.7220   50.7570 C.3      12 GLL5        0.0000 
     84 CA         51.0730   39.8107   52.1148 C.3       4 GLC5        0.0000 
     85 CA         52.5418   37.2035   54.1290 C.3       4 GLC5        0.0000 
     86 CA         51.2050   36.3100   55.0320 C.3       8 GLP5        0.0000 
     87 CA         54.4973   39.7510   53.7390 C.3       4 GLC5        0.0000 
@<TRIPOS>BOND
@<TRIPOS>SUBSTRUCTURE
     1 ALC1       16 GROUP        1 X    ALC  0     ROOT ALC X 1
     2 SEC2        9 GROUP        1 X    SEC  0     **** SEC X 2
     3 ZIC7       43 GROUP        1 X    ZIC  0     **** ZIC X 5
     4 GLC5        1 GROUP        1 X    GLC  0     **** GLC X 6
     5 ALP1       18 GROUP        1 Y    ALP  0     ROOT ALP Y 8
     6 SEP2       11 GROUP        1 Y    SEP  0     **** SEP Y 9
     7 ZIP7       45 GROUP        1 Y    ZIP  0     **** ZIP Y 12
     8 GLP5        3 GROUP        1 Y    GLP  0     **** GLP Y 13
     9 ALL1       17 GROUP        1 Z    ALL  0     ROOT ALL Z 15
    10 SEL2       10 GROUP        1 Z    SEL  0     **** SEL Z 16
    11 ZIL7       44 GROUP        1 Z    ZIL  0     **** ZIL Z 19
    12 GLL5        2 GROUP        1 Z    GLL  0     **** GLL Z 20
@<TRIPOS>SET

