#    Name: 1ovm_TPP_2_ligand
#    Modification time : Mon Mar 24 20:38:50 2014

@<TRIPOS>MOLECULE
1ovm_TPP_2_ligand
   42    43     1     0     0
SMALL
NO_CHARGES


@<TRIPOS>ATOM
      1 N1'        50.6660   35.9900   46.5160 N.ar      1 TPP600      0.0000 
      2 C2'        51.8650   35.8350   45.8700 C.ar      1 TPP600      0.0000 
      3 CM2        52.0310   34.6430   45.0420 C.3       1 TPP600      0.0000 
      4 N3'        52.8630   36.7360   45.9490 N.ar      1 TPP600      0.0000 
      5 C4'        52.7710   37.9000   46.7320 C.ar      1 TPP600      0.0000 
      6 N4'        53.8360   38.7040   46.7250 N.pl3     1 TPP600      0.0000 
      7 C5'        51.4450   38.1990   47.5310 C.ar      1 TPP600      0.0000 
      8 C6'        50.4040   37.0830   47.3320 C.ar      1 TPP600      0.0000 
      9 C7'        51.1990   39.4090   48.4190 C.3       1 TPP600      0.0000 
     10 N3         52.2020   39.4050   49.6020 N.pl3     1 TPP600      0.0000 
     11 C2         53.3690   40.0780   49.6050 C.2       1 TPP600      0.0000 
     12 S1         54.2810   39.8840   51.0280 S.3       1 TPP600      0.0000 
     13 C5         53.0630   38.8690   51.6510 C.2       1 TPP600      0.0000 
     14 C4         52.0240   38.7220   50.7570 C.2       1 TPP600      0.0000 
     15 CM4        50.8080   37.9030   51.0080 C.3       1 TPP600      0.0000 
     16 C6         53.1910   38.2570   53.0200 C.3       1 TPP600      0.0000 
     17 C7         54.5660   37.9370   53.4320 C.3       1 TPP600      0.0000 
     18 O7         54.4350   36.9620   54.4660 O.3       1 TPP600      0.0000 
     19 PA         55.7240   36.4240   55.1140 P.3       1 TPP600      0.0000 
     20 O1A        56.5270   35.4180   54.3330 O.co2     1 TPP600      0.0000 
     21 O2A        55.1100   36.0020   56.3510 O.co2     1 TPP600      0.0000 
     22 O3A        56.5310   37.6860   55.7020 O.3       1 TPP600      0.0000 
     23 PB         56.7400   38.6670   56.9580 P.3       1 TPP600      0.0000 
     24 O1B        58.0200   38.0620   57.3200 O.co2     1 TPP600      0.0000 
     25 O2B        56.8980   40.0050   56.4180 O.co2     1 TPP600      0.0000 
     26 O3B        55.5630   38.5710   57.8690 O.co2     1 TPP600      0.0000 
     27 H          54.6082   38.4066   46.1635 H         1 TPP600      0.0000 
     28 H          53.7662   39.5316   47.2819 H         1 TPP600      0.0000 
     29 H          49.5300   37.2069   47.8337 H         1 TPP600      0.0000 
     30 H          50.1928   39.3754   48.8171 H         1 TPP600      0.0000 
     31 H          51.3384   40.3188   47.8490 H         1 TPP600      0.0000 
     32 H          53.7952   40.6463   48.9697 H         1 TPP600      0.0000 
     33 H          52.5636   37.3349   53.0532 H         1 TPP600      0.0000 
     34 H          52.7278   38.9514   53.7605 H         1 TPP600      0.0000 
     35 H          55.0546   38.8348   53.7954 H         1 TPP600      0.0000 
     36 H          55.1166   37.5424   52.5847 H         1 TPP600      0.0000 
     37 H          52.9330   34.6127   44.6113 H         1 TPP600      0.0000 
     38 H          51.9328   33.8032   45.5760 H         1 TPP600      0.0000 
     39 H          51.3538   34.6040   44.3072 H         1 TPP600      0.0000 
     40 H          50.7027   37.1767   50.3288 H         1 TPP600      0.0000 
     41 H          50.8352   37.4632   51.9057 H         1 TPP600      0.0000 
     42 H          49.9752   38.4557   50.9776 H         1 TPP600      0.0000 
@<TRIPOS>BOND
     1    2    1 ar   
     2    8    1 ar   
     3    3    2 1    
     4    4    2 ar   
     5   37    3 1    
     6   38    3 1    
     7   39    3 1    
     8    5    4 ar   
     9    6    5 1    
    10    7    5 ar   
    11   27    6 1    
    12   28    6 1    
    13    8    7 ar   
    14    9    7 1    
    15   29    8 1    
    16   10    9 1    
    17   30    9 1    
    18   31    9 1    
    19   11   10 2    
    20   14   10 1    
    21   12   11 1    
    22   32   11 1    
    23   13   12 1    
    24   14   13 2    
    25   16   13 1    
    26   15   14 1    
    27   40   15 1    
    28   41   15 1    
    29   42   15 1    
    30   17   16 1    
    31   33   16 1    
    32   34   16 1    
    33   18   17 1    
    34   35   17 1    
    35   36   17 1    
    36   19   18 1    
    37   20   19 ar   
    38   21   19 ar   
    39   22   19 1    
    40   23   22 1    
    41   24   23 ar   
    42   25   23 ar   
    43   26   23 ar   
@<TRIPOS>SUBSTRUCTURE
     1 TPP600      1 GROUP   
@<TRIPOS>SET

