#    Name: 4g3j_VNT_1_INTS_M
#    Modification time : Mon Mar 24 21:20:50 2014

@<TRIPOS>MOLECULE
4g3j_VNT_1_INTS_M
   35     0     3     0     0
SMALL
NO_CHARGES


@<TRIPOS>ATOM
      1 CA        -16.6730    4.7190   -0.4520 C.3       1 GLC5        0.0000 
      2 CA        -15.4700    5.7310   -1.7560 C.3       3 GLL5        0.0000 
      3 CA        -17.8760    3.7070    0.8520 C.3       2 GLP5        0.0000 
      4 CA        -10.7315    9.6385   -3.5600 C.3       1 GLC5        0.0000 
      5 CA        -11.8540    8.2610   -3.2700 C.3       3 GLL5        0.0000 
      6 CA         -9.6090   11.0160   -3.8500 C.3       2 GLP5        0.0000 
      7 CA         -9.9860    4.0675   -6.3435 C.3       1 GLC5        0.0000 
      8 CA        -11.1440    5.6280   -7.2270 C.3       3 GLL5        0.0000 
      9 CA         -8.8280    2.5070   -5.4600 C.3       2 GLP5        0.0000 
     10 CA        -14.5625    3.7390   -2.2145 C.3       1 GLC5        0.0000 
     11 CA        -13.1160    4.7360   -1.2730 C.3       3 GLL5        0.0000 
     12 CA        -16.0090    2.7420   -3.1560 C.3       2 GLP5        0.0000 
     13 CA        -11.7765    3.8105   -0.8380 C.3       1 GLC5        0.0000 
     14 CA        -10.4370    2.8850   -0.4030 C.3       2 GLP5        0.0000 
     15 CA        -12.5265    5.6595    0.1745 C.3       1 GLC5        0.0000 
     16 CA        -11.9370    6.5830    1.6220 C.3       2 GLP5        0.0000 
     17 CA        -17.0320    4.5915   -2.5530 C.3       1 GLC5        0.0000 
     18 CA        -18.0550    6.4410   -1.9500 C.3       3 GLL5        0.0000 
     19 CA        -18.3810    6.4400   -3.8085 C.3       1 GLC5        0.0000 
     20 CA        -18.7070    6.4390   -5.6670 C.3       2 GLP5        0.0000 
     21 CA        -19.8530    7.3255   -1.4855 C.3       1 GLC5        0.0000 
     22 CA        -21.6510    8.2100   -1.0210 C.3       2 GLP5        0.0000 
     23 CA        -17.9655    5.0740   -0.5490 C.3       1 GLC5        0.0000 
     24 CA        -13.1920    3.6640   -2.8825 C.3       1 GLC5        0.0000 
     25 CA        -14.1220    5.7880   -2.0530 C.3       3 GLL5        0.0000 
     26 CA        -12.7650    2.0660   -4.1020 C.3       2 GLP5        0.0000 
     27 CA        -13.7540    6.7426   -0.5004 C.3       1 GLC5        0.0000 
     28 CA        -13.2900    7.2570    1.4500 C.3       2 GLP5        0.0000 
     29 CA        -11.9395    4.1482   -6.2325 C.3       1 GLC5        0.0000 
     30 CA        -10.2340    5.7610   -6.1930 C.3       3 GLL5        0.0000 
     31 CA        -13.1900    2.6020   -5.7550 C.3       2 GLP5        0.0000 
     32 CA         -8.7226    7.4842   -6.0152 C.3       1 GLC5        0.0000 
     33 CA         -8.4420    9.0860   -4.9510 C.3       2 GLP5        0.0000 
     34 CA         -8.9156    4.1948   -6.2698 C.3       1 GLC5        0.0000 
     35 CA         -8.8910    5.9310   -6.4990 C.3       3 GLL5        0.0000 
@<TRIPOS>BOND
@<TRIPOS>SUBSTRUCTURE
     1 GLC5        1 GROUP        1 X    GLC  0     ROOT GLC X 6
     2 GLP5        3 GROUP        1 Y    GLP  0     ROOT GLP Y 13
     3 GLL5        2 GROUP        1 Z    GLL  0     ROOT GLL Z 20
@<TRIPOS>SET

