#    Name: 4g3j_VNT_1_ligand
#    Modification time : Mon Mar 24 21:20:50 2014

@<TRIPOS>MOLECULE
4g3j_VNT_1_ligand
   42    44     1     0     0
SMALL
NO_CHARGES


@<TRIPOS>ATOM
      1 CBA       -14.1220    5.7880   -2.0530 C.ar      1 VNT502      0.0000 
      2 CAQ       -15.4700    5.7310   -1.7560 C.ar      1 VNT502      0.0000 
      3 CAZ       -16.3750    6.5770   -2.3640 C.ar      1 VNT502      0.0000 
      4 CAI       -15.9130    7.5050   -3.2960 C.ar      1 VNT502      0.0000 
      5 CAN       -14.5490    7.5710   -3.5920 C.ar      1 VNT502      0.0000 
      6 CBE       -13.6400    6.6970   -2.9970 C.ar      1 VNT502      0.0000 
      7 CBH       -12.2550    6.7890   -3.2670 C.3       1 VNT502      0.0000 
      8 CAR       -11.8540    8.2610   -3.2700 C.3       1 VNT502      0.0000 
      9 NBI       -11.7530    8.9310   -1.9830 N.pl3     1 VNT502      0.0000 
     10 NAT       -10.9220    8.7880   -1.2480 N.2       1 VNT502      0.0000 
     11 CAO       -11.0730    9.5850   -0.1960 C.2       1 VNT502      0.0000 
     12 NAS       -12.1800   10.2620   -0.3970 N.2       1 VNT502      0.0000 
     13 CAP       -12.6060    9.8550   -1.5650 C.2       1 VNT502      0.0000 
     14 NAW       -11.8400    6.3560   -4.6170 N.am      1 VNT502      0.0000 
     15 CAY       -10.6200    5.8310   -4.8530 C.2       1 VNT502      0.0000 
     16 OAA        -9.8180    5.5740   -3.9660 O.2       1 VNT502      0.0000 
     17 CBB       -10.2340    5.7610   -6.1930 C.ar      1 VNT502      0.0000 
     18 CAJ        -8.8910    5.9310   -6.4990 C.ar      1 VNT502      0.0000 
     19 CAL        -8.4440    5.9190   -7.8130 C.ar      1 VNT502      0.0000 
     20 CAK       -11.1440    5.6280   -7.2270 C.ar      1 VNT502      0.0000 
     21 CAM       -10.6930    5.6150   -8.5480 C.ar      1 VNT502      0.0000 
     22 CBD        -9.3430    5.7400   -8.8480 C.ar      1 VNT502      0.0000 
     23 CBG        -8.9410    5.7750  -10.1180 C.2       1 VNT502      0.0000 
     24 OAX        -7.9340    6.3900  -10.5110 O.3       1 VNT502      0.0000 
     25 NAV        -9.6080    5.3040  -11.1580 N.2       1 VNT502      0.0000 
     26 NAU        -8.9990    5.5730  -12.1200 N.2       1 VNT502      0.0000 
     27 CLC       -13.1160    4.7360   -1.2730 Cl        1 VNT502      0.0000 
     28 CLB       -18.0550    6.4410   -1.9500 Cl        1 VNT502      0.0000 
     29 H         -15.8092    5.0358   -1.0596 H         1 VNT502      0.0000 
     30 H         -16.5704    8.1374   -3.7634 H         1 VNT502      0.0000 
     31 H         -14.2093    8.2803   -4.2637 H         1 VNT502      0.0000 
     32 H         -11.6402    6.3111   -2.5336 H         1 VNT502      0.0000 
     33 H         -12.5837    8.8058   -3.9333 H         1 VNT502      0.0000 
     34 H         -10.8771    8.3411   -3.8253 H         1 VNT502      0.0000 
     35 H         -10.4799    9.6473    0.5627 H         1 VNT502      0.0000 
     36 H         -13.3913   10.1628   -2.0408 H         1 VNT502      0.0000 
     37 H         -12.5439    6.4815   -5.3663 H         1 VNT502      0.0000 
     38 H          -8.2073    6.0699   -5.7301 H         1 VNT502      0.0000 
     39 H          -7.4414    6.0437   -8.0146 H         1 VNT502      0.0000 
     40 H         -12.1473    5.5389   -7.0292 H         1 VNT502      0.0000 
     41 H         -11.3803    5.5101   -9.3161 H         1 VNT502      0.0000 
     42 H          -7.9879    7.2847  -10.0676 H         1 VNT502      0.0000 
@<TRIPOS>BOND
     1    2    1 ar   
     2    6    1 ar   
     3   27    1 1    
     4    3    2 ar   
     5   29    2 1    
     6    4    3 ar   
     7   28    3 1    
     8    5    4 ar   
     9   30    4 1    
    10    6    5 ar   
    11   31    5 1    
    12    7    6 1    
    13    8    7 1    
    14   14    7 1    
    15   32    7 1    
    16    9    8 1    
    17   33    8 1    
    18   34    8 1    
    19   10    9 1    
    20   13    9 1    
    21   11   10 2    
    22   12   11 1    
    23   35   11 1    
    24   13   12 2    
    25   36   13 1    
    26   15   14 am   
    27   37   14 1    
    28   16   15 2    
    29   17   15 1    
    30   18   17 ar   
    31   20   17 ar   
    32   19   18 ar   
    33   38   18 1    
    34   22   19 ar   
    35   39   19 1    
    36   21   20 ar   
    37   40   20 1    
    38   22   21 ar   
    39   41   21 1    
    40   23   22 1    
    41   24   23 1    
    42   25   23 2    
    43   42   24 1    
    44   26   25 1    
@<TRIPOS>SUBSTRUCTURE
     1 VNT502      1 GROUP   
@<TRIPOS>SET

