#    Name: 1q5k_TMU_1_INTS_M
#    Modification time : Mon Mar 24 23:06:01 2014

@<TRIPOS>MOLECULE
1q5k_TMU_1_INTS_M
   42     0     9     0     0
SMALL
NO_CHARGES


@<TRIPOS>ATOM
      1 CA         22.3580   23.2940    9.6335 C.3       3 GLC5        0.0000 
      2 CA         21.5370   24.4340    7.9290 C.3       9 GLL5        0.0000 
      3 CA         23.1790   22.1540   11.3380 C.3       6 GLP5        0.0000 
      4 CA         22.4800   25.8215    6.8720 C.3       3 GLC5        0.0000 
      5 CA         23.4230   27.2090    5.8150 C.3       6 GLP5        0.0000 
      6 N          22.3210   22.6630    4.5055 N.am      2 SEC2        0.0000 
      7 N          21.6340   23.3800    5.7730 N.am      8 SEL2        0.0000 
      8 N          23.0080   21.9460    3.2380 N.am      5 SEP2        0.0000 
      9 O          24.4910   22.8795    5.8220 O.2       1 ALC1        0.0000 
     10 O          23.8170   23.1860    6.8220 O.2       7 ALL1        0.0000 
     11 O          25.1650   22.5730    4.8220 O.2       4 ALP1        0.0000 
     12 CA         20.7555   22.1225    4.6515 C.3       3 GLC5        0.0000 
     13 CA         20.4050   23.8240    5.8600 C.3       9 GLL5        0.0000 
     14 CA         21.1060   20.4210    3.4430 C.3       6 GLP5        0.0000 
     15 O          25.5490   22.8480    6.3025 O.2       1 ALC1        0.0000 
     16 O          25.9330   23.1230    7.7830 O.2       7 ALL1        0.0000 
     17 O          27.1520   22.6645    6.9860 O.2       1 ALC1        0.0000 
     18 O          28.3710   22.2060    6.1890 O.2       4 ALP1        0.0000 
     19 CA         27.9835   24.0720    7.0485 C.3       3 GLC5        0.0000 
     20 CA         26.9180   23.4530    8.8270 C.3       9 GLL5        0.0000 
     21 CA         29.0490   24.6910    5.2700 C.3       6 GLP5        0.0000 
     22 CA         26.7700   25.4110    8.3850 C.3       3 GLC5        0.0000 
     23 CA         26.6220   27.3690    7.9430 C.3       6 GLP5        0.0000 
     24 CA         24.7200   19.8705   10.6815 C.3       3 GLC5        0.0000 
     25 CA         26.8360   19.9850   10.4500 C.3       9 GLL5        0.0000 
     26 CA         22.6040   19.7560   10.9130 C.3       6 GLP5        0.0000 
     27 CA         25.0305   20.4235   12.5480 C.3       3 GLC5        0.0000 
     28 CA         26.9640   20.3240   11.8250 C.3       9 GLL5        0.0000 
     29 CA         23.0970   20.5230   13.2710 C.3       6 GLP5        0.0000 
     30 CA         19.7838   23.5562    9.1470 C.3       3 GLC5        0.0000 
     31 CA         18.7820   22.6530   10.8360 C.3       6 GLP5        0.0000 
     32 CA         19.3968   22.5868    6.6997 C.3       3 GLC5        0.0000 
     33 CA         20.0340   24.4850    6.9870 C.3       9 GLL5        0.0000 
     34 CA         18.5740   21.0190    6.9760 C.3       6 GLP5        0.0000 
     35 CA         20.9642   25.3392    5.2663 C.3       3 GLC5        0.0000 
     36 CA         21.7090   26.5240    4.1090 C.3       6 GLP5        0.0000 
     37 CA         25.0292   21.9177   10.5040 C.3       3 GLC5        0.0000 
     38 CA         26.9360   22.3610    9.8650 C.3       9 GLL5        0.0000 
     39 CA         25.1240   22.1750   11.5275 C.3       3 GLC5        0.0000 
     40 CA         27.0620   22.7010   11.2270 C.3       9 GLL5        0.0000 
     41 CA         28.4202   24.1975   10.1887 C.3       3 GLC5        0.0000 
     42 CA         29.8460   25.5910   10.0910 C.3       6 GLP5        0.0000 
@<TRIPOS>BOND
@<TRIPOS>SUBSTRUCTURE
     1 ALC1        9 GROUP        1 X    ALC  0     ROOT ALC X 1
     2 SEC2        6 GROUP        1 X    SEC  0     **** SEC X 2
     3 GLC5        1 GROUP        1 X    GLC  0     **** GLC X 6
     4 ALP1       11 GROUP        1 Y    ALP  0     ROOT ALP Y 8
     5 SEP2        8 GROUP        1 Y    SEP  0     **** SEP Y 9
     6 GLP5        3 GROUP        1 Y    GLP  0     **** GLP Y 13
     7 ALL1       10 GROUP        1 Z    ALL  0     ROOT ALL Z 15
     8 SEL2        7 GROUP        1 Z    SEL  0     **** SEL Z 16
     9 GLL5        2 GROUP        1 Z    GLL  0     **** GLL Z 20
@<TRIPOS>SET

