#    Name: 1q5k_TMU_1_ligand
#    Modification time : Mon Mar 24 23:06:01 2014

@<TRIPOS>MOLECULE
1q5k_TMU_1_ligand
   33    34     1     0     0
SMALL
NO_CHARGES


@<TRIPOS>ATOM
      1 C1         22.4890   23.5710    6.7560 C.2       1 TMU901      0.0000 
      2 S2         21.5370   24.4340    7.9290 S.3       1 TMU901      0.0000 
      3 N3         21.6340   23.3800    5.7730 N.2       1 TMU901      0.0000 
      4 N4         23.8170   23.1860    6.8220 N.am      1 TMU901      0.0000 
      5 C5         20.0340   24.4850    6.9870 C.2       1 TMU901      0.0000 
      6 C6         20.4050   23.8240    5.8600 C.2       1 TMU901      0.0000 
      7 C7         24.6410   23.5450    7.8400 C.2       1 TMU901      0.0000 
      8 N8         18.7490   25.0910    7.3530 N.pl3     1 TMU901      0.0000 
      9 N9         25.9330   23.1230    7.7830 N.am      1 TMU901      0.0000 
     10 O10        24.2360   24.2330    8.7800 O.2       1 TMU901      0.0000 
     11 O11        17.9620   25.4350    6.4810 O.2       1 TMU901      0.0000 
     12 O12        18.4810   25.2650    8.5270 O.2       1 TMU901      0.0000 
     13 C13        26.9180   23.4530    8.8270 C.3       1 TMU901      0.0000 
     14 C14        26.9360   22.3610    9.8650 C.ar      1 TMU901      0.0000 
     15 C15        26.8230   21.0020    9.4750 C.ar      1 TMU901      0.0000 
     16 C16        27.0620   22.7010   11.2270 C.ar      1 TMU901      0.0000 
     17 C17        26.8360   19.9850   10.4500 C.ar      1 TMU901      0.0000 
     18 C18        27.0760   21.6910   12.2070 C.ar      1 TMU901      0.0000 
     19 C19        26.9640   20.3240   11.8250 C.ar      1 TMU901      0.0000 
     20 O20        26.9710   19.3380   12.7790 O.3       1 TMU901      0.0000 
     21 C21        28.3340   18.9430   13.0220 C.3       1 TMU901      0.0000 
     22 H          24.1960   22.5863    6.0404 H         1 TMU901      0.0000 
     23 H          19.7142   23.6858    5.0990 H         1 TMU901      0.0000 
     24 H          26.2834   22.5454    6.9948 H         1 TMU901      0.0000 
     25 H          26.6592   24.3978    9.3090 H         1 TMU901      0.0000 
     26 H          27.9152   23.5475    8.3928 H         1 TMU901      0.0000 
     27 H          26.7324   20.7649    8.4862 H         1 TMU901      0.0000 
     28 H          27.1432   23.6825   11.5024 H         1 TMU901      0.0000 
     29 H          26.7542   19.0068   10.1763 H         1 TMU901      0.0000 
     30 H          27.1663   21.9313   13.1948 H         1 TMU901      0.0000 
     31 H          28.7711   18.5890   12.1952 H         1 TMU901      0.0000 
     32 H          28.8910   19.7089   13.3431 H         1 TMU901      0.0000 
     33 H          28.3946   18.2254   13.7158 H         1 TMU901      0.0000 
@<TRIPOS>BOND
     1    2    1 1    
     2    3    1 2    
     3    4    1 1    
     4    5    2 1    
     5    6    3 1    
     6    7    4 am   
     7   22    4 1    
     8    6    5 2    
     9    8    5 1    
    10   23    6 1    
    11    9    7 am   
    12   10    7 2    
    13   11    8 2    
    14   12    8 2    
    15   13    9 1    
    16   24    9 1    
    17   14   13 1    
    18   25   13 1    
    19   26   13 1    
    20   15   14 ar   
    21   16   14 ar   
    22   17   15 ar   
    23   27   15 1    
    24   18   16 ar   
    25   28   16 1    
    26   19   17 ar   
    27   29   17 1    
    28   19   18 ar   
    29   30   18 1    
    30   20   19 1    
    31   21   20 1    
    32   31   21 1    
    33   32   21 1    
    34   33   21 1    
@<TRIPOS>SUBSTRUCTURE
     1 TMU901      1 GROUP   
@<TRIPOS>SET

