#    Name: 1FDR_1_CAVITY_N1_ALL.mol2
#    Modification time : Mon Mar 10 22:59:31 2014

@<TRIPOS>MOLECULE
1FDR_1_CAVITY_N1_ALL.mol2
   79     0     5     0     0
SMALL
NO_CHARGES


@<TRIPOS>ATOM
      1 O          22.3770   23.8573   27.4305 O.2       2 ALA2        0.0000 
      2 O          22.8925   22.5618   27.9835 O.2       2 ALA2        0.0000 
      3 CA         22.9114   23.4925   26.0773 C.3       4 GLY6        0.0000 
      4 CA         23.4459   23.1276   24.7240 C.3       4 GLY6        0.0000 
      5 O          23.1646   25.8150   27.2138 O.2       2 ALA2        0.0000 
      6 O          23.6802   24.5195   27.7667 O.2       2 ALA2        0.0000 
      7 O          24.1958   23.2239   28.3196 O.2       2 ALA2        0.0000 
      8 OG         23.6991   25.4502   25.8605 O.2       1 SER1        0.0000 
      9 CA         24.2147   24.1546   26.4135 C.3       4 GLY6        0.0000 
     10 DU         24.7303   22.8591   26.9664 H         5 CUB7        0.0000 
     11 CA         24.7491   23.7897   25.0602 C.3       4 GLY6        0.0000 
     12 CA         24.4679   26.4772   27.5500 C.3       4 GLY6        0.0000 
     13 CA         24.9835   25.1816   28.1029 C.3       4 GLY6        0.0000 
     14 O          25.4991   23.8861   28.6558 O.2       2 ALA2        0.0000 
     15 OG         25.0024   26.1123   26.1967 O.2       1 SER1        0.0000 
     16 CA         25.5180   24.8168   26.7497 C.3       4 GLY6        0.0000 
     17 DU         26.0335   23.5212   27.3026 H         5 CUB7        0.0000 
     18 CA         26.0524   24.4519   25.3964 C.3       4 GLY6        0.0000 
     19 CA         26.7646   22.6869   32.8044 C.3       4 GLY6        0.0000 
     20 CA         26.2679   24.9131   30.3453 C.3       4 GLY6        0.0000 
     21 CA         26.7835   23.6176   30.8982 C.3       4 GLY6        0.0000 
     22 OG         25.7712   27.1393   27.8861 O.2       1 SER1        0.0000 
     23 OG         26.2868   25.8438   28.4391 O.2       1 SER1        0.0000 
     24 DU         26.8024   24.5483   28.9920 H         5 CUB7        0.0000 
     25 DU         27.3180   23.2527   29.5450 H         5 CUB7        0.0000 
     26 CA         26.3056   26.7745   26.5329 C.3       4 GLY6        0.0000 
     27 CA         26.8212   25.4789   27.0859 C.3       4 GLY6        0.0000 
     28 DU         27.3368   24.1834   27.6388 H         5 CUB7        0.0000 
     29 N          27.8524   22.8878   28.1917 N.2       2 ALA2        0.0000 
     30 CA         27.3557   25.1141   25.7326 C.3       4 GLY6        0.0000 
     31 CA         27.8713   23.8185   26.2856 C.3       4 GLY6        0.0000 
     32 CZ         27.0556   26.8708   30.1285 C.ar      3 PHE5        0.0000 
     33 N          27.5712   25.5753   30.6814 N.2       2 ALA2        0.0000 
     34 N          28.0868   24.2797   31.2344 N.2       2 ALA2        0.0000 
     35 N          28.6024   22.9842   31.7873 N.2       2 ALA2        0.0000 
     36 CZ         27.0745   27.8015   28.2223 C.ar      3 PHE5        0.0000 
     37 CZ         27.5900   26.5059   28.7753 C.ar      3 PHE5        0.0000 
     38 DU         28.1056   25.2104   29.3282 H         5 CUB7        0.0000 
     39 N          28.6212   23.9149   29.8812 N.2       2 ALA2        0.0000 
     40 N          27.6089   27.4366   26.8691 N.2       2 ALA2        0.0000 
     41 DU         28.1245   26.1411   27.4220 H         5 CUB7        0.0000 
     42 N          28.6401   24.8455   27.9750 N.2       2 ALA2        0.0000 
     43 N          29.1557   23.5500   28.5279 N.2       2 ALA2        0.0000 
     44 CA         28.1434   27.0718   25.5159 C.3       4 GLY6        0.0000 
     45 CA         28.6590   25.7762   26.0688 C.3       4 GLY6        0.0000 
     46 CZ         29.1745   24.4807   26.6218 C.ar      3 PHE5        0.0000 
     47 N          29.6901   23.1851   27.1747 N.2       2 ALA2        0.0000 
     48 CA         29.1934   25.4114   24.7156 C.3       4 GLY6        0.0000 
     49 CZ         29.7090   24.1158   25.2685 C.ar      3 PHE5        0.0000 
     50 N          29.3901   24.9419   31.5706 N.2       2 ALA2        0.0000 
     51 CA         27.8621   29.7592   28.0056 C.3       4 GLY6        0.0000 
     52 CZ         28.3777   28.4636   28.5585 C.ar      3 PHE5        0.0000 
     53 CZ         28.8933   27.1681   29.1115 C.ar      3 PHE5        0.0000 
     54 N          29.4089   25.8726   29.6644 N.2       2 ALA2        0.0000 
     55 N          29.9245   24.5770   30.2173 N.2       2 ALA2        0.0000 
     56 N          28.3966   29.3943   26.6524 N.2       2 ALA2        0.0000 
     57 CA         28.9122   28.0988   27.2053 C.3       4 GLY6        0.0000 
     58 DU         29.4278   26.8032   27.7582 H         5 CUB7        0.0000 
     59 N          29.9434   25.5077   28.3112 N.2       2 ALA2        0.0000 
     60 CA         29.4466   27.7339   25.8521 C.3       4 GLY6        0.0000 
     61 CA         29.9622   26.4384   26.4050 C.3       4 GLY6        0.0000 
     62 CZ         30.4778   25.1428   26.9579 C.ar      3 PHE5        0.0000 
     63 CZ         30.4967   26.0735   25.0518 C.ar      3 PHE5        0.0000 
     64 CA         29.1654   30.4213   28.3418 C.3       4 GLY6        0.0000 
     65 CZ         29.6810   29.1258   28.8947 C.ar      3 PHE5        0.0000 
     66 CZ         30.1966   27.8303   29.4477 C.ar      3 PHE5        0.0000 
     67 CZ         30.7122   26.5347   30.0006 C.ar      3 PHE5        0.0000 
     68 O          29.6999   30.0565   26.9885 O.2       2 ALA2        0.0000 
     69 OG         30.2155   28.7609   27.5415 O.2       1 SER1        0.0000 
     70 OG         30.7310   27.4654   28.0944 O.2       1 SER1        0.0000 
     71 CZ         31.2466   26.1699   28.6474 C.ar      3 PHE5        0.0000 
     72 OG         31.2655   27.1005   26.7412 O.2       1 SER1        0.0000 
     73 CA         31.7811   25.8050   27.2941 C.3       4 GLY6        0.0000 
     74 CZ         31.8000   26.7357   25.3880 C.ar      3 PHE5        0.0000 
     75 CZ         30.4498   30.1528   30.5841 C.ar      3 PHE5        0.0000 
     76 CZ         30.9654   28.8573   31.1371 C.ar      3 PHE5        0.0000 
     77 N          31.4810   27.5617   31.6900 N.2       2 ALA2        0.0000 
     78 N          30.9843   29.7880   29.2309 N.2       2 ALA2        0.0000 
     79 CZ         31.4999   28.4924   29.7838 C.ar      3 PHE5        0.0000 
@<TRIPOS>BOND
@<TRIPOS>SUBSTRUCTURE
     1 SER1        8 GROUP   
     2 ALA2        1 GROUP   
     3 PHE5       32 GROUP   
     4 GLY6        3 GROUP   
     5 CUB7       10 GROUP   
@<TRIPOS>SET

