#    Name: 1fdr_FAD_1_INTS_M
#    Modification time : Tue Mar 25 01:05:53 2014

@<TRIPOS>MOLECULE
1fdr_FAD_1_INTS_M
   95     0    12     0     0
SMALL
NO_CHARGES


@<TRIPOS>ATOM
      1 NZ         22.3860   21.7710   28.9855 N.4       3 LYC4        0.0000 
      2 NZ         23.5850   21.7540   27.9530 N.4      11 LYL4        0.0000 
      3 NZ         21.8580   22.3230   31.0170 N.4       7 LYP4        0.0000 
      4 N          23.2360   22.4350   29.3530 N.am      2 SEC2        0.0000 
      5 N          23.5850   21.7540   27.9530 N.am     10 SEL2        0.0000 
      6 N          22.8870   23.1160   30.7530 N.am      6 SEP2        0.0000 
      7 N          22.3860   21.7710   28.9855 N.am      2 SEC2        0.0000 
      8 N          21.1870   21.7880   30.0180 N.am      6 SEP2        0.0000 
      9 N          20.8190   22.9845   25.9840 N.am      2 SEC2        0.0000 
     10 N          21.9550   21.8500   25.9860 N.am     10 SEL2        0.0000 
     11 N          19.6830   24.1190   25.9820 N.am      6 SEP2        0.0000 
     12 CA         25.7675   22.8120   23.3855 C.3       4 GLC5        0.0000 
     13 CA         26.4760   21.0900   24.4010 C.3      12 GLL5        0.0000 
     14 CA         25.0590   24.5340   22.3700 C.3       8 GLP5        0.0000 
     15 CA         29.3275   20.4110   25.9450 C.3       4 GLC5        0.0000 
     16 CA         27.7910   20.3800   24.7690 C.3      12 GLL5        0.0000 
     17 CA         30.8640   20.4420   27.1210 C.3       8 GLP5        0.0000 
     18 CA         30.1885   20.3200   24.3560 C.3       4 GLC5        0.0000 
     19 CA         28.7760   21.0910   23.8510 C.3      12 GLL5        0.0000 
     20 CA         31.6010   19.5490   24.8610 C.3       8 GLP5        0.0000 
     21 CA         26.6430   23.4920   22.9605 C.3       4 GLC5        0.0000 
     22 CA         28.2270   22.4500   23.5510 C.3      12 GLL5        0.0000 
     23 CA         30.2125   22.0585   24.3975 C.3       4 GLC5        0.0000 
     24 CA         32.1980   21.6670   25.2440 C.3       8 GLP5        0.0000 
     25 O          32.2135   28.2350   26.4340 O.2       1 ALC1        0.0000 
     26 O          31.5440   26.8520   26.2470 O.2       9 ALL1        0.0000 
     27 O          32.8830   29.6180   26.6210 O.2       5 ALP1        0.0000 
     28 CA         30.2185   27.5395   23.2355 C.3       4 GLC5        0.0000 
     29 CA         30.9560   25.8560   22.8590 C.3      12 GLL5        0.0000 
     30 CA         29.4810   29.2230   23.6120 C.3       8 GLP5        0.0000 
     31 N          29.4665   30.6805   26.4560 N.am      2 SEC2        0.0000 
     32 N          30.2060   29.6590   27.6530 N.am     10 SEL2        0.0000 
     33 N          28.7270   31.7020   25.2590 N.am      6 SEP2        0.0000 
     34 O          31.1425   31.3550   29.3725 O.2       1 ALC1        0.0000 
     35 O          31.0540   30.0250   29.6560 O.2       9 ALL1        0.0000 
     36 O          31.2310   32.6850   29.0890 O.2       5 ALP1        0.0000 
     37 N          32.1085   30.2235   33.1320 N.am      2 SEC2        0.0000 
     38 N          31.9600   30.5010   31.5530 N.am     10 SEL2        0.0000 
     39 N          32.2570   29.9460   34.7110 N.am      6 SEP2        0.0000 
     40 N          32.1410   28.8165   33.4750 N.am      2 SEC2        0.0000 
     41 N          32.0250   27.6870   32.2390 N.am     10 SEL2        0.0000 
     42 CA         33.6925   24.8990   36.6315 C.3       4 GLC5        0.0000 
     43 CA         33.3390   24.1740   34.9930 C.3      12 GLL5        0.0000 
     44 CA         34.0460   25.6240   38.2700 C.3       8 GLP5        0.0000 
     45 CA         35.4305   23.8680   34.5790 C.3       4 GLC5        0.0000 
     46 CA         37.5220   23.5620   34.1650 C.3       8 GLP5        0.0000 
     47 CA         32.4580   24.8910   30.2065 C.3       4 GLC5        0.0000 
     48 CA         31.1820   25.5070   31.6180 C.3      12 GLL5        0.0000 
     49 CA         33.7340   24.2750   28.7950 C.3       8 GLP5        0.0000 
     50 CA         31.7365   24.7920   29.2400 C.3       4 GLC5        0.0000 
     51 CA         29.7390   25.3090   29.6850 C.3      12 GLL5        0.0000 
     52 O          28.4700   26.0985   32.4480 O.2       1 ALC1        0.0000 
     53 O          27.9810   25.1670   31.6010 O.2       9 ALL1        0.0000 
     54 O          28.9590   27.0300   33.2950 O.2       5 ALP1        0.0000 
     55 N          25.7940   27.8175   29.4625 N.am      2 SEC2        0.0000 
     56 N          26.5860   27.3320   28.3880 N.am     10 SEL2        0.0000 
     57 N          25.0020   28.3030   30.5370 N.am      6 SEP2        0.0000 
     58 CA         26.1020   25.8160   25.4770 C.3       4 GLC5        0.0000 
     59 CA         25.7500   25.3890   27.2730 C.3      12 GLL5        0.0000 
     60 CA         26.4540   26.2430   23.6810 C.3       8 GLP5        0.0000 
     61 CA         24.7210   27.1665   26.7240 C.3       4 GLC5        0.0000 
     62 CA         23.6920   28.9440   26.1750 C.3       8 GLP5        0.0000 
     63 NZ         21.7115   23.1495   29.1650 N.4       3 LYC4        0.0000 
     64 NZ         22.2360   24.5110   28.3120 N.4      11 LYL4        0.0000 
     65 N          22.5615   23.8135   29.5325 N.am      2 SEC2        0.0000 
     66 N          22.2360   24.5110   28.3120 N.am     10 SEL2        0.0000 
     67 N          21.7115   23.1495   29.1650 N.am      2 SEC2        0.0000 
     68 N          21.0185   25.3230   28.2725 N.am      2 SEC2        0.0000 
     69 N          19.8010   26.1350   28.2330 N.am      6 SEP2        0.0000 
     70 N          22.3690   27.1470   26.9075 N.am      2 SEC2        0.0000 
     71 N          23.0610   26.0180   26.3020 N.am     10 SEL2        0.0000 
     72 N          21.6770   28.2760   27.5130 N.am      6 SEP2        0.0000 
     73 N          23.2870   27.0040   25.7280 N.am      2 SEC2        0.0000 
     74 N          23.5130   27.9900   25.1540 N.am      6 SEP2        0.0000 
     75 CA         29.9775   27.4265   24.4240 C.3       4 GLC5        0.0000 
     76 CA         29.9680   25.1010   25.2430 C.3      12 GLL5        0.0000 
     77 CA         28.1215   25.4982   24.1760 C.3       4 GLC5        0.0000 
     78 CA         30.7818   25.5615   34.3238 C.3       4 GLC5        0.0000 
     79 CA         31.9810   26.3510   32.3890 C.3      12 GLL5        0.0000 
     80 CA         29.2810   24.9720   35.7020 C.3       8 GLP5        0.0000 
     81 CA         31.1068   27.7125   33.6873 C.3       4 GLC5        0.0000 
     82 CA         32.5840   25.9510   33.5020 C.3      12 GLL5        0.0000 
     83 CA         29.9310   29.2740   34.4290 C.3       8 GLP5        0.0000 
     84 CA         31.1137   24.6878   35.0395 C.3       4 GLC5        0.0000 
     85 CA         32.5540   24.6330   33.7610 C.3      12 GLL5        0.0000 
     86 CA         30.3429   24.2790   34.1227 C.3       4 GLC5        0.0000 
     87 CA         31.7740   23.7400   33.0250 C.3      12 GLL5        0.0000 
     88 CA         32.5394   23.2970   31.0843 C.3       4 GLC5        0.0000 
     89 CA         33.6740   23.0080   29.6250 C.3       8 GLP5        0.0000 
     90 CA         26.2050   25.4917   31.2508 C.3       4 GLC5        0.0000 
     91 CA         28.2410   25.4450   30.2390 C.3      12 GLL5        0.0000 
     92 CA         24.7390   25.7170   32.6810 C.3       8 GLP5        0.0000 
     93 CA         27.1457   27.4309   30.0209 C.3       4 GLC5        0.0000 
     94 CA         27.1010   25.0880   29.4020 C.3      12 GLL5        0.0000 
     95 CA         27.1560   29.2380   30.9310 C.3       8 GLP5        0.0000 
@<TRIPOS>BOND
@<TRIPOS>SUBSTRUCTURE
     1 ALC1       25 GROUP        1 X    ALC  0     ROOT ALC X 1
     2 SEC2        4 GROUP        1 X    SEC  0     **** SEC X 2
     3 LYC4        1 GROUP        1 X    LYC  0     **** LYC X 4
     4 GLC5       12 GROUP        1 X    GLC  0     **** GLC X 6
     5 ALP1       27 GROUP        1 Y    ALP  0     ROOT ALP Y 8
     6 SEP2        6 GROUP        1 Y    SEP  0     **** SEP Y 9
     7 LYP4        3 GROUP        1 Y    LYP  0     **** LYP Y 11
     8 GLP5       14 GROUP        1 Y    GLP  0     **** GLP Y 13
     9 ALL1       26 GROUP        1 Z    ALL  0     ROOT ALL Z 15
    10 SEL2        5 GROUP        1 Z    SEL  0     **** SEL Z 16
    11 LYL4        2 GROUP        1 Z    LYL  0     **** LYL Z 18
    12 GLL5       13 GROUP        1 Z    GLL  0     **** GLL Z 20
@<TRIPOS>SET

