#    Name: 1fdr_FAD_1_ligand
#    Modification time : Tue Mar 25 01:05:53 2014

@<TRIPOS>MOLECULE
1fdr_FAD_1_ligand
   83    88     1     0     0
SMALL
NO_CHARGES


@<TRIPOS>ATOM
      1 PA         23.3750   22.1210   26.5560 P.3       1 FAD249      0.0000 
      2 O1A        23.5850   21.7540   27.9530 O.co2     1 FAD249      0.0000 
      3 O2A        21.9550   21.8500   25.9860 O.co2     1 FAD249      0.0000 
      4 O5B        24.3340   21.4120   25.4430 O.3       1 FAD249      0.0000 
      5 C5B        25.7500   21.3900   25.6940 C.3       1 FAD249      0.0000 
      6 C4B        26.4760   21.0900   24.4010 C.3       1 FAD249      0.0000 
      7 O4B        26.8010   22.3920   23.8380 O.3       1 FAD249      0.0000 
      8 C3B        27.7910   20.3800   24.7690 C.3       1 FAD249      0.0000 
      9 O3B        27.8420   19.0340   24.3240 O.3       1 FAD249      0.0000 
     10 C2B        28.7760   21.0910   23.8510 C.3       1 FAD249      0.0000 
     11 O2B        28.9950   20.3950   22.6240 O.3       1 FAD249      0.0000 
     12 C1B        28.2270   22.4500   23.5510 C.3       1 FAD249      0.0000 
     13 N9A        28.9040   23.3410   24.4830 N.pl3     1 FAD249      0.0000 
     14 C8A        28.8040   23.3730   25.8180 C.2       1 FAD249      0.0000 
     15 N7A        29.4280   24.4720   26.2910 N.2       1 FAD249      0.0000 
     16 C5A        29.9680   25.1010   25.2430 C.ar      1 FAD249      0.0000 
     17 C6A        30.9800   26.1590   25.2290 C.ar      1 FAD249      0.0000 
     18 N6A        31.5440   26.8520   26.2470 N.pl3     1 FAD249      0.0000 
     19 N1A        31.4040   26.4650   23.9640 N.ar      1 FAD249      0.0000 
     20 C2A        30.9560   25.8560   22.8590 C.ar      1 FAD249      0.0000 
     21 N3A        30.1040   24.8300   22.9220 N.ar      1 FAD249      0.0000 
     22 C4A        29.6100   24.4060   24.0990 C.ar      1 FAD249      0.0000 
     23 N1         30.2060   27.9280   29.0860 N.2       1 FAD249      0.0000 
     24 C2         30.4190   29.2420   28.7460 C.2       1 FAD249      0.0000 
     25 O2         30.2060   29.6590   27.6530 O.2       1 FAD249      0.0000 
     26 N3         31.0540   30.0250   29.6560 N.am      1 FAD249      0.0000 
     27 C4         31.5610   29.5890   30.8880 C.2       1 FAD249      0.0000 
     28 O4         31.9600   30.5010   31.5530 O.2       1 FAD249      0.0000 
     29 C4X        31.3980   28.2210   31.1440 C.2       1 FAD249      0.0000 
     30 N5         32.0250   27.6870   32.2390 N.2       1 FAD249      0.0000 
     31 C5X        31.9810   26.3510   32.3890 C.ar      1 FAD249      0.0000 
     32 C6         32.5840   25.9510   33.5020 C.ar      1 FAD249      0.0000 
     33 C7         32.5540   24.6330   33.7610 C.ar      1 FAD249      0.0000 
     34 C7M        33.3390   24.1740   34.9930 C.3       1 FAD249      0.0000 
     35 C8         31.7740   23.7400   33.0250 C.ar      1 FAD249      0.0000 
     36 C8M        31.7490   22.2240   33.2670 C.3       1 FAD249      0.0000 
     37 C9         31.0480   24.1900   31.9410 C.ar      1 FAD249      0.0000 
     38 C9A        31.1820   25.5070   31.6180 C.ar      1 FAD249      0.0000 
     39 N10        30.5540   26.0580   30.5280 N.pl3     1 FAD249      0.0000 
     40 C10        30.6840   27.3700   30.2600 C.2       1 FAD249      0.0000 
     41 C1'        29.7390   25.3090   29.6850 C.3       1 FAD249      0.0000 
     42 C2'        28.2410   25.4450   30.2390 C.3       1 FAD249      0.0000 
     43 O2'        27.9810   25.1670   31.6010 O.3       1 FAD249      0.0000 
     44 C3'        27.1010   25.0880   29.4020 C.3       1 FAD249      0.0000 
     45 O3'        27.2750   23.7710   29.0660 O.3       1 FAD249      0.0000 
     46 C4'        26.6000   25.9810   28.4010 C.3       1 FAD249      0.0000 
     47 O4'        26.5860   27.3320   28.3880 O.3       1 FAD249      0.0000 
     48 C5'        25.7500   25.3890   27.2730 C.3       1 FAD249      0.0000 
     49 O5'        24.6000   25.0100   27.9890 O.3       1 FAD249      0.0000 
     50 P          23.1870   24.8770   27.1800 P.3       1 FAD249      0.0000 
     51 O1P        22.2360   24.5110   28.3120 O.co2     1 FAD249      0.0000 
     52 O2P        23.0610   26.0180   26.3020 O.co2     1 FAD249      0.0000 
     53 O3P        23.6810   23.6520   26.4420 O.3       1 FAD249      0.0000 
     54 H          26.0135   20.6193   26.4236 H         1 FAD249      0.0000 
     55 H          26.1029   22.3537   26.0714 H         1 FAD249      0.0000 
     56 H          25.9021   20.5078   23.7812 H         1 FAD249      0.0000 
     57 H          28.0484   20.5537   25.7366 H         1 FAD249      0.0000 
     58 H          29.7046   21.2242   24.3988 H         1 FAD249      0.0000 
     59 H          28.4265   22.6961   22.5570 H         1 FAD249      0.0000 
     60 H          28.3515   22.7079   26.3686 H         1 FAD249      0.0000 
     61 H          31.2859   26.1970   21.9144 H         1 FAD249      0.0000 
     62 H          31.1867   31.0622   29.4300 H         1 FAD249      0.0000 
     63 H          33.0499   26.6066   34.1353 H         1 FAD249      0.0000 
     64 H          30.4478   23.5657   31.4170 H         1 FAD249      0.0000 
     65 H          29.9548   24.2471   29.6886 H         1 FAD249      0.0000 
     66 H          29.7053   25.6714   28.6644 H         1 FAD249      0.0000 
     67 H          28.1436   26.6935   30.2297 H         1 FAD249      0.0000 
     68 H          26.2140   25.0324   30.2267 H         1 FAD249      0.0000 
     69 H          27.7334   25.8816   27.5984 H         1 FAD249      0.0000 
     70 H          26.2784   24.5631   26.8620 H         1 FAD249      0.0000 
     71 H          25.5661   26.1576   26.5619 H         1 FAD249      0.0000 
     72 H          34.3108   24.3977   34.9187 H         1 FAD249      0.0000 
     73 H          33.0021   24.6053   35.8300 H         1 FAD249      0.0000 
     74 H          33.2753   23.1850   35.1267 H         1 FAD249      0.0000 
     75 H          32.6527   21.8135   33.1450 H         1 FAD249      0.0000 
     76 H          31.4485   22.0008   34.1943 H         1 FAD249      0.0000 
     77 H          31.1277   21.7576   32.6373 H         1 FAD249      0.0000 
     78 H          28.5278   19.0280   23.5961 H         1 FAD249      0.0000 
     79 H          29.9544   20.5641   22.3984 H         1 FAD249      0.0000 
     80 H          31.8618   27.7055   25.8341 H         1 FAD249      0.0000 
     81 H          28.4229   25.9088   32.1054 H         1 FAD249      0.0000 
     82 H          26.4300   23.3178   29.3499 H         1 FAD249      0.0000 
     83 H          26.6007   27.5816   27.4198 H         1 FAD249      0.0000 
@<TRIPOS>BOND
     1    2    1 ar   
     2    3    1 ar   
     3    4    1 1    
     4   53    1 1    
     5    5    4 1    
     6    6    5 1    
     7   54    5 1    
     8   55    5 1    
     9    7    6 1    
    10    8    6 1    
    11   56    6 1    
    12   12    7 1    
    13    9    8 1    
    14   10    8 1    
    15   57    8 1    
    16   78    9 1    
    17   11   10 1    
    18   12   10 1    
    19   58   10 1    
    20   79   11 1    
    21   13   12 1    
    22   59   12 1    
    23   14   13 1    
    24   22   13 1    
    25   15   14 2    
    26   60   14 1    
    27   16   15 1    
    28   17   16 ar   
    29   22   16 ar   
    30   18   17 1    
    31   19   17 ar   
    32   80   18 1    
    33   20   19 ar   
    34   21   20 ar   
    35   61   20 1    
    36   22   21 ar   
    37   24   23 1    
    38   40   23 2    
    39   25   24 2    
    40   26   24 am   
    41   27   26 am   
    42   62   26 1    
    43   28   27 2    
    44   29   27 1    
    45   30   29 2    
    46   40   29 1    
    47   31   30 1    
    48   32   31 ar   
    49   38   31 ar   
    50   33   32 ar   
    51   63   32 1    
    52   34   33 1    
    53   35   33 ar   
    54   72   34 1    
    55   73   34 1    
    56   74   34 1    
    57   36   35 1    
    58   37   35 ar   
    59   75   36 1    
    60   76   36 1    
    61   77   36 1    
    62   38   37 ar   
    63   64   37 1    
    64   39   38 1    
    65   40   39 1    
    66   41   39 1    
    67   42   41 1    
    68   65   41 1    
    69   66   41 1    
    70   43   42 1    
    71   44   42 1    
    72   67   42 1    
    73   81   43 1    
    74   45   44 1    
    75   46   44 1    
    76   68   44 1    
    77   82   45 1    
    78   47   46 1    
    79   48   46 1    
    80   69   46 1    
    81   83   47 1    
    82   49   48 1    
    83   70   48 1    
    84   71   48 1    
    85   50   49 1    
    86   51   50 ar   
    87   52   50 ar   
    88   53   50 1    
@<TRIPOS>SUBSTRUCTURE
     1 FAD249      1 GROUP   
@<TRIPOS>SET

