#    Name: 4j0s_1H3_1_INTS_M
#    Modification time : Tue Mar 25 04:58:55 2014

@<TRIPOS>MOLECULE
4j0s_1H3_1_INTS_M
   55     0     9     0     0
SMALL
NO_CHARGES


@<TRIPOS>ATOM
      1 CA         30.7395   15.8880    2.8435 C.3       3 GLC5        0.0000 
      2 CA         29.3020   16.0550    1.3330 C.3       9 GLL5        0.0000 
      3 CA         32.1770   15.7210    4.3540 C.3       6 GLP5        0.0000 
      4 O          27.5215   15.4240    3.4410 O.2       1 ALC1        0.0000 
      5 O          27.1990   15.3930    2.0690 O.2       7 ALL1        0.0000 
      6 O          27.8440   15.4550    4.8130 O.2       4 ALP1        0.0000 
      7 CA         31.0670   18.1280   -0.9030 C.3       3 GLC5        0.0000 
      8 CA         31.5050   16.7390    0.4610 C.3       9 GLL5        0.0000 
      9 CA         30.6290   19.5170   -2.2670 C.3       6 GLP5        0.0000 
     10 CA         33.2690   13.0785   -0.3610 C.3       3 GLC5        0.0000 
     11 CA         33.1030   14.8300   -0.5660 C.3       9 GLL5        0.0000 
     12 CA         33.4350   11.3270   -0.1560 C.3       6 GLP5        0.0000 
     13 CA         34.6175   15.0160    1.0385 C.3       3 GLC5        0.0000 
     14 CA         36.1320   15.2020    2.6430 C.3       6 GLP5        0.0000 
     15 CA         34.8950   14.3115   -1.1095 C.3       3 GLC5        0.0000 
     16 CA         36.6870   13.7930   -1.6530 C.3       6 GLP5        0.0000 
     17 N          34.4015   17.7395   -0.9810 N.am      2 SEC2        0.0000 
     18 N          33.7020   17.0330    0.2010 N.am      8 SEL2        0.0000 
     19 N          35.1010   18.4460   -2.1630 N.am      5 SEP2        0.0000 
     20 CA         28.8550   18.9435    1.2505 C.3       3 GLC5        0.0000 
     21 CA         30.9660   18.9570    1.8030 C.3       9 GLL5        0.0000 
     22 CA         26.7440   18.9300    0.6980 C.3       6 GLP5        0.0000 
     23 CA         30.6715   20.7100    1.6755 C.3       3 GLC5        0.0000 
     24 CA         30.3770   22.4630    1.5480 C.3       6 GLP5        0.0000 
     25 CA         31.5715   17.3390    3.0785 C.3       3 GLC5        0.0000 
     26 CA         30.0775   19.2415   -0.0115 C.3       3 GLC5        0.0000 
     27 CA         29.1890   19.5260   -1.8260 C.3       6 GLP5        0.0000 
     28 CA         29.4100   13.8148    0.1135 C.3       3 GLC5        0.0000 
     29 CA         29.8400   15.7380   -1.0260 C.3       9 GLL5        0.0000 
     30 CA         29.6240   12.1870    1.3660 C.3       6 GLP5        0.0000 
     31 CA         26.1427   18.2848   -1.8270 C.3       3 GLC5        0.0000 
     32 CA         26.8090   16.6900   -3.0080 C.3       9 GLL5        0.0000 
     33 CA         25.6840   19.3350   -0.2770 C.3       6 GLP5        0.0000 
     34 CA         27.9130   18.6955   -3.0998 C.3       3 GLC5        0.0000 
     35 CA         26.3940   17.7790   -3.7460 C.3       9 GLL5        0.0000 
     36 CA         26.3645   19.6345   -4.3152 C.3       3 GLC5        0.0000 
     37 CA         26.0920   21.4040   -4.2570 C.3       6 GLP5        0.0000 
     38 CA         27.3068   17.0987    0.5635 C.3       3 GLC5        0.0000 
     39 CA         27.6660   15.0400   -0.2240 C.3       9 GLL5        0.0000 
     40 CA         28.7467   13.7272    0.8975 C.3       3 GLC5        0.0000 
     41 CA         28.0730   15.4950    1.0820 C.3       9 GLL5        0.0000 
     42 CA         29.4060   17.9458   -4.4665 C.3       3 GLC5        0.0000 
     43 CA         28.2090   15.9720   -4.7670 C.3       9 GLL5        0.0000 
     44 CA         30.8230   19.3750   -3.7920 C.3       6 GLP5        0.0000 
     45 CA         28.2467   17.5280    0.7465 C.3       3 GLC5        0.0000 
     46 CA         30.1970   16.1970    0.2570 C.3       9 GLL5        0.0000 
     47 CA         29.6867   14.1565    1.0805 C.3       3 GLC5        0.0000 
     48 CA         28.2245   17.8833   -2.5393 C.3       3 GLC5        0.0000 
     49 CA         27.7110   15.7910   -3.4970 C.3       9 GLL5        0.0000 
     50 CA         27.7437   18.7760   -6.8465 C.3       3 GLC5        0.0000 
     51 CA         26.8800   17.9510   -5.0010 C.3       9 GLL5        0.0000 
     52 CA         28.1630   20.0460   -8.4350 C.3       6 GLP5        0.0000 
     53 CA         29.4427   17.6729   -1.1335 C.3       3 GLC5        0.0000 
     54 CA         28.5520   15.1470   -1.2520 C.3       9 GLL5        0.0000 
     55 CA         32.1437   16.0880    2.2910 C.3       3 GLC5        0.0000 
@<TRIPOS>BOND
@<TRIPOS>SUBSTRUCTURE
     1 ALC1        4 GROUP        1 X    ALC  0     ROOT ALC X 1
     2 SEC2       17 GROUP        1 X    SEC  0     **** SEC X 2
     3 GLC5        1 GROUP        1 X    GLC  0     **** GLC X 6
     4 ALP1        6 GROUP        1 Y    ALP  0     ROOT ALP Y 8
     5 SEP2       19 GROUP        1 Y    SEP  0     **** SEP Y 9
     6 GLP5        3 GROUP        1 Y    GLP  0     **** GLP Y 13
     7 ALL1        5 GROUP        1 Z    ALL  0     ROOT ALL Z 15
     8 SEL2       18 GROUP        1 Z    SEL  0     **** SEL Z 16
     9 GLL5        2 GROUP        1 Z    GLL  0     **** GLL Z 20
@<TRIPOS>SET

