#    Name: 4j0s_1H3_1_ligand
#    Modification time : Tue Mar 25 04:58:55 2014

@<TRIPOS>MOLECULE
4j0s_1H3_1_ligand
   39    41     1     0     0
SMALL
NO_CHARGES


@<TRIPOS>ATOM
      1 C4         29.8400   15.7380   -1.0260 C.ar      1 1H3205      0.0000 
      2 C14        26.3940   17.7790   -3.7460 C.ar      1 1H3205      0.0000 
      3 C5         28.5520   15.1470   -1.2520 C.ar      1 1H3205      0.0000 
      4 C6         27.6660   15.0400   -0.2240 C.ar      1 1H3205      0.0000 
      5 C11        28.2090   15.9720   -4.7670 C.ar      1 1H3205      0.0000 
      6 C7         28.0730   15.4950    1.0820 C.ar      1 1H3205      0.0000 
      7 C8         29.3020   16.0550    1.3330 C.ar      1 1H3205      0.0000 
      8 C9         28.1800   14.6450   -2.6530 C.3       1 1H3205      0.0000 
      9 C10        27.7110   15.7910   -3.4970 C.ar      1 1H3205      0.0000 
     10 C12        27.7690   17.0610   -5.5150 C.ar      1 1H3205      0.0000 
     11 C13        26.8800   17.9510   -5.0010 C.ar      1 1H3205      0.0000 
     12 C3         30.1970   16.1970    0.2570 C.ar      1 1H3205      0.0000 
     13 O1         27.2220   13.6040   -2.5460 O.3       1 1H3205      0.0000 
     14 C15        26.8090   16.6900   -3.0080 C.ar      1 1H3205      0.0000 
     15 O          27.1990   15.3930    2.0690 O.3       1 1H3205      0.0000 
     16 C2         31.5050   16.7390    0.4610 C.2       1 1H3205      0.0000 
     17 C16        32.7160   16.1710   -0.0050 C.2       1 1H3205      0.0000 
     18 C17        33.1030   14.8300   -0.5660 C.3       1 1H3205      0.0000 
     19 O2         33.7020   17.0330    0.2010 O.3       1 1H3205      0.0000 
     20 N          33.1610   18.1550    0.8670 N.2       1 1H3205      0.0000 
     21 C1         31.8550   18.0050    1.0580 C.2       1 1H3205      0.0000 
     22 C          30.9660   18.9570    1.8030 C.3       1 1H3205      0.0000 
     23 H          30.4924   15.8209   -1.8062 H         1 1H3205      0.0000 
     24 H          25.7234   18.4472   -3.3401 H         1 1H3205      0.0000 
     25 H          26.7345   14.6553   -0.3360 H         1 1H3205      0.0000 
     26 H          28.8921   15.3208   -5.1623 H         1 1H3205      0.0000 
     27 H          29.5712   16.3623    2.2623 H         1 1H3205      0.0000 
     28 H          29.1143   14.2603   -3.0945 H         1 1H3205      0.0000 
     29 H          28.1354   17.1823   -6.4814 H         1 1H3205      0.0000 
     30 H          26.5725   18.7644   -5.5709 H         1 1H3205      0.0000 
     31 H          26.4169   16.5554   -2.0463 H         1 1H3205      0.0000 
     32 H          34.0759   14.7894   -0.7936 H         1 1H3205      0.0000 
     33 H          32.9224   14.0902    0.0821 H         1 1H3205      0.0000 
     34 H          32.5973   14.6172   -1.4020 H         1 1H3205      0.0000 
     35 H          31.4650   19.7667    2.1118 H         1 1H3205      0.0000 
     36 H          30.2079   19.2785    1.2356 H         1 1H3205      0.0000 
     37 H          30.5650   18.5326    2.6148 H         1 1H3205      0.0000 
     38 H          27.6469   12.8149   -2.9895 H         1 1H3205      0.0000 
     39 H          27.7408   15.1335    2.8685 H         1 1H3205      0.0000 
@<TRIPOS>BOND
     1    3    1 ar   
     2   12    1 ar   
     3   23    1 1    
     4   11    2 ar   
     5   14    2 ar   
     6   24    2 1    
     7    4    3 ar   
     8    8    3 1    
     9    6    4 ar   
    10   25    4 1    
    11    9    5 ar   
    12   10    5 ar   
    13   26    5 1    
    14    7    6 ar   
    15   15    6 1    
    16   12    7 ar   
    17   27    7 1    
    18    9    8 1    
    19   13    8 1    
    20   28    8 1    
    21   14    9 ar   
    22   11   10 ar   
    23   29   10 1    
    24   30   11 1    
    25   16   12 1    
    26   38   13 1    
    27   31   14 1    
    28   39   15 1    
    29   17   16 2    
    30   21   16 1    
    31   18   17 1    
    32   19   17 1    
    33   32   18 1    
    34   33   18 1    
    35   34   18 1    
    36   20   19 1    
    37   21   20 2    
    38   22   21 1    
    39   35   22 1    
    40   36   22 1    
    41   37   22 1    
@<TRIPOS>SUBSTRUCTURE
     1 1H3205      1 GROUP   
@<TRIPOS>SET

