#    Name: 2p9n_ADP_1_INTS_M
#    Modification time : Mon Mar 24 18:33:10 2014

@<TRIPOS>MOLECULE
2p9n_ADP_1_INTS_M
   48     0    12     0     0
SMALL
NO_CHARGES


@<TRIPOS>ATOM
      1 N          21.8735   12.8600   45.9745 N.am      2 SEC2        0.0000 
      2 N          21.9760   13.8930   44.5800 N.am     10 SEL2        0.0000 
      3 N          21.7710   11.8270   47.3690 N.am      6 SEP2        0.0000 
      4 NZ         23.8420   16.4915   44.6975 N.4       3 LYC4        0.0000 
      5 NZ         23.9100   15.2930   43.6340 N.4      11 LYL4        0.0000 
      6 NZ         23.7740   17.6900   45.7610 N.4       7 LYP4        0.0000 
      7 N          23.8420   16.4915   44.6975 N.am      2 SEC2        0.0000 
      8 N          23.9100   15.2930   43.6340 N.am     10 SEL2        0.0000 
      9 N          23.7740   17.6900   45.7610 N.am      6 SEP2        0.0000 
     10 N          22.1775   10.4860   42.1315 N.am      2 SEC2        0.0000 
     11 N          22.0670   11.2740   43.5520 N.am     10 SEL2        0.0000 
     12 N          22.2880    9.6980   40.7110 N.am      6 SEP2        0.0000 
     13 CA         26.1905   12.5860   39.4610 C.3       4 GLC5        0.0000 
     14 CA         25.8820   10.7000   40.5280 C.3      12 GLL5        0.0000 
     15 CA         26.4990   14.4720   38.3940 C.3       8 GLP5        0.0000 
     16 CA         25.7755    8.3355   39.3325 C.3       4 GLC5        0.0000 
     17 CA         26.6830    9.4830   41.0020 C.3      12 GLL5        0.0000 
     18 CA         24.8680    7.1880   37.6630 C.3       8 GLP5        0.0000 
     19 N          27.3675    7.4450   39.2015 N.am      2 SEC2        0.0000 
     20 N          26.4290    8.3720   40.1350 N.am     10 SEL2        0.0000 
     21 N          28.3060    6.5180   38.2680 N.am      6 SEP2        0.0000 
     22 O          25.5385    7.2400   40.6810 O.2       1 ALC1        0.0000 
     23 O          26.4290    8.3720   40.1350 O.2       9 ALL1        0.0000 
     24 O          24.6480    6.1080   41.2270 O.2       5 ALP1        0.0000 
     25 N          28.6355    7.6715   39.4110 N.am      2 SEC2        0.0000 
     26 N          28.9650    8.8250   40.5540 N.am     10 SEL2        0.0000 
     27 O          30.2000    9.2540   40.8650 O.2       1 ALC1        0.0000 
     28 O          28.9650    8.8250   40.5540 O.2       9 ALL1        0.0000 
     29 O          31.4350    9.6830   41.1760 O.2       5 ALP1        0.0000 
     30 CA         27.2210   12.6210   38.9745 C.3       4 GLC5        0.0000 
     31 CA         27.9430   10.7700   39.5550 C.3      12 GLL5        0.0000 
     32 CA         30.6290   14.2040   36.0620 C.3       4 GLC5        0.0000 
     33 CA         31.3650   12.9540   36.8970 C.3      12 GLL5        0.0000 
     34 CA         29.8930   15.4540   35.2270 C.3       8 GLP5        0.0000 
     35 CA         29.9550   13.3920   35.4725 C.3       4 GLC5        0.0000 
     36 CA         30.0170   11.3300   35.7180 C.3      12 GLL5        0.0000 
     37 CA         28.0655   13.0910   38.1890 C.3       4 GLC5        0.0000 
     38 CA         29.6320   11.7100   37.9840 C.3      12 GLL5        0.0000 
     39 CA         23.8805   11.4672   40.3397 C.3       4 GLC5        0.0000 
     40 CA         22.2130   11.8570   39.5760 C.3       8 GLP5        0.0000 
     41 CA         24.7252    9.1026   41.5534 C.3       4 GLC5        0.0000 
     42 CA         25.2140   11.4550   41.6790 C.3      12 GLL5        0.0000 
     43 CA         23.3350    7.9250   42.0540 C.3       8 GLP5        0.0000 
     44 CA         29.7197   14.0587   37.2820 C.3       4 GLC5        0.0000 
     45 CA         30.6430   12.6610   38.0480 C.3      12 GLL5        0.0000 
     46 CA         29.3020   15.9320   36.5480 C.3       8 GLP5        0.0000 
     47 CA         31.4745   10.9619   38.4241 C.3       4 GLC5        0.0000 
     48 CA         32.6310    9.6650   39.1200 C.3       8 GLP5        0.0000 
@<TRIPOS>BOND
@<TRIPOS>SUBSTRUCTURE
     1 ALC1       22 GROUP        1 X    ALC  0     ROOT ALC X 1
     2 SEC2        1 GROUP        1 X    SEC  0     **** SEC X 2
     3 LYC4        4 GROUP        1 X    LYC  0     **** LYC X 4
     4 GLC5       13 GROUP        1 X    GLC  0     **** GLC X 6
     5 ALP1       24 GROUP        1 Y    ALP  0     ROOT ALP Y 8
     6 SEP2        3 GROUP        1 Y    SEP  0     **** SEP Y 9
     7 LYP4        6 GROUP        1 Y    LYP  0     **** LYP Y 11
     8 GLP5       15 GROUP        1 Y    GLP  0     **** GLP Y 13
     9 ALL1       23 GROUP        1 Z    ALL  0     ROOT ALL Z 15
    10 SEL2        2 GROUP        1 Z    SEL  0     **** SEL Z 16
    11 LYL4        5 GROUP        1 Z    LYL  0     **** LYL Z 18
    12 GLL5       14 GROUP        1 Z    GLL  0     **** GLL Z 20
@<TRIPOS>SET

