#    Name: 2p9n_ADP_1_ligand
#    Modification time : Mon Mar 24 18:33:10 2014

@<TRIPOS>MOLECULE
2p9n_ADP_1_ligand
   39    41     1     0     0
SMALL
NO_CHARGES


@<TRIPOS>ATOM
      1 PB         23.1830   14.0090   43.5200 P.3       1 ADP501      0.0000 
      2 O1B        21.9760   13.8930   44.5800 O.co2     1 ADP501      0.0000 
      3 O2B        22.5320   13.8210   42.0590 O.co2     1 ADP501      0.0000 
      4 O3B        23.9100   15.2930   43.6340 O.co2     1 ADP501      0.0000 
      5 PA         23.5330   11.2260   43.6840 P.3       1 ADP501      0.0000 
      6 O1A        24.1180   10.4680   44.8210 O.co2     1 ADP501      0.0000 
      7 O2A        22.0670   11.2740   43.5520 O.co2     1 ADP501      0.0000 
      8 O3A        24.1220   12.7260   43.7730 O.3       1 ADP501      0.0000 
      9 O5'        24.1860   10.6880   42.3130 O.3       1 ADP501      0.0000 
     10 C5'        25.2140   11.4550   41.6790 C.3       1 ADP501      0.0000 
     11 C4'        25.8820   10.7000   40.5280 C.3       1 ADP501      0.0000 
     12 O4'        26.8250   11.5940   39.9130 O.3       1 ADP501      0.0000 
     13 C3'        26.6830    9.4830   41.0020 C.3       1 ADP501      0.0000 
     14 O3'        26.4290    8.3720   40.1350 O.3       1 ADP501      0.0000 
     15 C2'        28.1280    9.9520   40.8320 C.3       1 ADP501      0.0000 
     16 O2'        28.9650    8.8250   40.5540 O.3       1 ADP501      0.0000 
     17 C1'        27.9430   10.7700   39.5550 C.3       1 ADP501      0.0000 
     18 N9         29.1000   11.6210   39.1970 N.pl3     1 ADP501      0.0000 
     19 C8         29.7450   12.4700   39.9960 C.2       1 ADP501      0.0000 
     20 N7         30.6820   13.1060   39.3020 N.2       1 ADP501      0.0000 
     21 C5         30.6430   12.6610   38.0480 C.ar      1 ADP501      0.0000 
     22 C6         31.3650   12.9540   36.8970 C.ar      1 ADP501      0.0000 
     23 N6         32.3410   13.8590   36.9090 N.pl3     1 ADP501      0.0000 
     24 N1         31.0500   12.2800   35.7120 N.ar      1 ADP501      0.0000 
     25 C2         30.0170   11.3300   35.7180 C.ar      1 ADP501      0.0000 
     26 N3         29.3530   11.0770   36.8290 N.ar      1 ADP501      0.0000 
     27 C4         29.6320   11.7100   37.9840 C.ar      1 ADP501      0.0000 
     28 H          26.0086   11.7370   42.3965 H         1 ADP501      0.0000 
     29 H          24.8158   12.4026   41.2677 H         1 ADP501      0.0000 
     30 H          25.1454   10.3863   39.8302 H         1 ADP501      0.0000 
     31 H          26.4894    9.3135   42.0060 H         1 ADP501      0.0000 
     32 H          28.3935   10.5554   41.5994 H         1 ADP501      0.0000 
     33 H          27.6707   10.1079   38.7714 H         1 ADP501      0.0000 
     34 H          29.5556   12.6029   40.9480 H         1 ADP501      0.0000 
     35 H          32.4930   14.3307   37.7776 H         1 ADP501      0.0000 
     36 H          32.8343   13.9856   36.0484 H         1 ADP501      0.0000 
     37 H          29.8030   10.8438   34.8232 H         1 ADP501      0.0000 
     38 H          25.8794    7.7389   40.6801 H         1 ADP501      0.0000 
     39 H          29.8933    9.1354   40.7588 H         1 ADP501      0.0000 
@<TRIPOS>BOND
     1    2    1 ar   
     2    3    1 ar   
     3    4    1 ar   
     4    8    1 1    
     5    6    5 ar   
     6    7    5 ar   
     7    8    5 1    
     8    9    5 1    
     9   10    9 1    
    10   11   10 1    
    11   28   10 1    
    12   29   10 1    
    13   12   11 1    
    14   13   11 1    
    15   30   11 1    
    16   17   12 1    
    17   14   13 1    
    18   15   13 1    
    19   31   13 1    
    20   38   14 1    
    21   16   15 1    
    22   17   15 1    
    23   32   15 1    
    24   39   16 1    
    25   18   17 1    
    26   33   17 1    
    27   19   18 1    
    28   27   18 1    
    29   20   19 2    
    30   34   19 1    
    31   21   20 1    
    32   22   21 ar   
    33   27   21 ar   
    34   23   22 1    
    35   24   22 ar   
    36   35   23 1    
    37   36   23 1    
    38   25   24 ar   
    39   26   25 ar   
    40   37   25 1    
    41   27   26 ar   
@<TRIPOS>SUBSTRUCTURE
     1 ADP501      1 GROUP   
@<TRIPOS>SET

