#    Name: 1mf1_AMP_1_INTS_M
#    Modification time : Tue Mar 25 11:48:09 2014

@<TRIPOS>MOLECULE
1mf1_AMP_1_INTS_M
   43     0     9     0     0
SMALL
NO_CHARGES


@<TRIPOS>ATOM
      1 N          57.9885   66.7660   39.1785 N.am      2 SEC2        0.0000 
      2 N          59.0280   66.8200   40.1240 N.am      8 SEL2        0.0000 
      3 N          56.9490   66.7120   38.2330 N.am      5 SEP2        0.0000 
      4 N          57.9655   65.7210   40.2200 N.am      2 SEC2        0.0000 
      5 N          56.9030   64.6220   40.3160 N.am      5 SEP2        0.0000 
      6 N          62.5610   65.6400   41.1270 N.am      2 SEC2        0.0000 
      7 N          61.2430   65.6460   40.4180 N.am      8 SEL2        0.0000 
      8 N          63.8790   65.6340   41.8360 N.am      5 SEP2        0.0000 
      9 CA         60.0320   68.2615   37.6605 C.3       3 GLC5        0.0000 
     10 CA         62.0800   67.8220   38.0110 C.3       9 GLL5        0.0000 
     11 CA         57.9840   68.7010   37.3100 C.3       6 GLP5        0.0000 
     12 CA         64.3390   66.2250   36.0315 C.3       3 GLC5        0.0000 
     13 CA         62.6240   67.1630   36.7670 C.3       9 GLL5        0.0000 
     14 CA         66.0540   65.2870   35.2960 C.3       6 GLP5        0.0000 
     15 CA         64.5540   68.0495   37.0845 C.3       3 GLC5        0.0000 
     16 CA         66.4840   68.9360   37.4020 C.3       6 GLP5        0.0000 
     17 CA         59.8200   67.9055   36.4525 C.3       3 GLC5        0.0000 
     18 CA         61.6560   67.1100   35.5950 C.3       9 GLL5        0.0000 
     19 O          61.1465   65.1790   33.2115 O.2       1 ALC1        0.0000 
     20 O          60.6850   65.1780   34.4060 O.2       7 ALL1        0.0000 
     21 O          61.6080   65.1800   32.0170 O.2       4 ALP1        0.0000 
     22 CA         64.2425   65.1125   35.6845 C.3       3 GLC5        0.0000 
     23 CA         62.4310   64.9380   36.0730 C.3       9 GLL5        0.0000 
     24 N          62.6565   61.9100   39.3110 N.am      2 SEC2        0.0000 
     25 N          61.6710   62.1370   38.3000 N.am      8 SEL2        0.0000 
     26 N          63.6420   61.6830   40.3220 N.am      5 SEP2        0.0000 
     27 O          60.9550   59.4750   38.9675 O.2       1 ALC1        0.0000 
     28 O          61.8940   59.1200   37.6300 O.2       7 ALL1        0.0000 
     29 O          60.0160   59.8300   40.3050 O.2       4 ALP1        0.0000 
     30 CA         64.3975   59.7815   34.5440 C.3       3 GLC5        0.0000 
     31 CA         62.7680   60.8220   34.6760 C.3       9 GLL5        0.0000 
     32 CA         66.0270   58.7410   34.4120 C.3       6 GLP5        0.0000 
     33 CA         64.3115   61.8660   35.3750 C.3       3 GLC5        0.0000 
     34 CA         65.8550   62.9100   36.0740 C.3       6 GLP5        0.0000 
     35 CA         61.8305   61.4660   33.5385 C.3       3 GLC5        0.0000 
     36 CA         60.8930   62.1100   32.4010 C.3       6 GLP5        0.0000 
     37 CA         61.6070   62.2600   34.2665 C.3       3 GLC5        0.0000 
     38 CA         62.3210   62.4100   36.1320 C.3       9 GLL5        0.0000 
     39 CA         63.6390   67.4307   38.9360 C.3       3 GLC5        0.0000 
     40 CA         64.9260   67.3690   40.4830 C.3       6 GLP5        0.0000 
     41 CA         61.7940   69.2646   36.5580 C.3       3 GLC5        0.0000 
     42 CA         61.5840   71.2280   36.6240 C.3       6 GLP5        0.0000 
     43 CA         64.0135   62.4300   36.3505 C.3       3 GLC5        0.0000 
@<TRIPOS>BOND
@<TRIPOS>SUBSTRUCTURE
     1 ALC1       19 GROUP        1 X    ALC  0     ROOT ALC X 1
     2 SEC2        1 GROUP        1 X    SEC  0     **** SEC X 2
     3 GLC5        9 GROUP        1 X    GLC  0     **** GLC X 6
     4 ALP1       21 GROUP        1 Y    ALP  0     ROOT ALP Y 8
     5 SEP2        3 GROUP        1 Y    SEP  0     **** SEP Y 9
     6 GLP5       11 GROUP        1 Y    GLP  0     **** GLP Y 13
     7 ALL1       20 GROUP        1 Z    ALL  0     ROOT ALL Z 15
     8 SEL2        2 GROUP        1 Z    SEL  0     **** SEL Z 16
     9 GLL5       10 GROUP        1 Z    GLL  0     **** GLL Z 20
@<TRIPOS>SET

