#    Name: 1mf1_AMP_1_ligand
#    Modification time : Tue Mar 25 11:48:09 2014

@<TRIPOS>MOLECULE
1mf1_AMP_1_ligand
   35    37     1     0     0
SMALL
NO_CHARGES


@<TRIPOS>ATOM
      1 P          60.5400   66.9370   40.0230 P.3       1 AMP459      0.0000 
      2 O1P        59.0280   66.8200   40.1240 O.co2     1 AMP459      0.0000 
      3 O2P        61.0680   68.1630   40.7560 O.co2     1 AMP459      0.0000 
      4 O3P        61.2430   65.6460   40.4180 O.co2     1 AMP459      0.0000 
      5 O5'        60.8720   67.1550   38.4400 O.3       1 AMP459      0.0000 
      6 C5'        62.0800   67.8220   38.0110 C.3       1 AMP459      0.0000 
      7 C4'        62.6240   67.1630   36.7670 C.3       1 AMP459      0.0000 
      8 O4'        63.0080   65.7880   37.0400 O.3       1 AMP459      0.0000 
      9 C3'        61.6560   67.1100   35.5950 C.3       1 AMP459      0.0000 
     10 O3'        62.3140   67.5020   34.3860 O.3       1 AMP459      0.0000 
     11 C2'        61.1670   65.6660   35.6340 C.3       1 AMP459      0.0000 
     12 O2'        60.6850   65.1780   34.4060 O.3       1 AMP459      0.0000 
     13 C1'        62.4310   64.9380   36.0730 C.3       1 AMP459      0.0000 
     14 N9         62.1720   63.6480   36.7100 N.pl3     1 AMP459      0.0000 
     15 C8         61.7660   63.4110   38.0000 C.2       1 AMP459      0.0000 
     16 N7         61.6710   62.1370   38.3000 N.2       1 AMP459      0.0000 
     17 C5         62.0230   61.4900   37.1220 C.ar      1 AMP459      0.0000 
     18 C6         62.1380   60.1250   36.7840 C.ar      1 AMP459      0.0000 
     19 N6         61.8940   59.1200   37.6300 N.pl3     1 AMP459      0.0000 
     20 N1         62.5200   59.8230   35.5270 N.ar      1 AMP459      0.0000 
     21 C2         62.7680   60.8220   34.6760 C.ar      1 AMP459      0.0000 
     22 N3         62.7000   62.1390   34.8730 N.ar      1 AMP459      0.0000 
     23 C4         62.3210   62.4100   36.1320 C.ar      1 AMP459      0.0000 
     24 H          62.8509   67.7807   38.7911 H         1 AMP459      0.0000 
     25 H          61.8881   68.8794   37.7881 H         1 AMP459      0.0000 
     26 H          63.5127   67.7095   36.4340 H         1 AMP459      0.0000 
     27 H          60.8253   67.7453   35.8517 H         1 AMP459      0.0000 
     28 H          60.4688   65.5876   36.4476 H         1 AMP459      0.0000 
     29 H          63.0743   64.8362   35.2295 H         1 AMP459      0.0000 
     30 H          61.5676   64.1651   38.6316 H         1 AMP459      0.0000 
     31 H          62.0321   58.1977   37.2691 H         1 AMP459      0.0000 
     32 H          61.5952   59.3804   38.5481 H         1 AMP459      0.0000 
     33 H          63.0760   60.5091   33.6545 H         1 AMP459      0.0000 
     34 H          61.9566   68.4130   34.1807 H         1 AMP459      0.0000 
     35 H          61.0909   65.7743   33.7134 H         1 AMP459      0.0000 
@<TRIPOS>BOND
     1    2    1 ar   
     2    3    1 ar   
     3    4    1 ar   
     4    5    1 1    
     5    6    5 1    
     6    7    6 1    
     7   24    6 1    
     8   25    6 1    
     9    8    7 1    
    10    9    7 1    
    11   26    7 1    
    12   13    8 1    
    13   10    9 1    
    14   11    9 1    
    15   27    9 1    
    16   34   10 1    
    17   12   11 1    
    18   13   11 1    
    19   28   11 1    
    20   35   12 1    
    21   14   13 1    
    22   29   13 1    
    23   15   14 1    
    24   23   14 1    
    25   16   15 2    
    26   30   15 1    
    27   17   16 1    
    28   18   17 ar   
    29   23   17 ar   
    30   19   18 1    
    31   20   18 ar   
    32   31   19 1    
    33   32   19 1    
    34   21   20 ar   
    35   22   21 ar   
    36   33   21 1    
    37   23   22 ar   
@<TRIPOS>SUBSTRUCTURE
     1 AMP459      1 GROUP   
@<TRIPOS>SET

