#    Name: 1ksw_NBS_1_INTS_M
#    Modification time : Mon Apr  7 13:47:50 2014

@<TRIPOS>MOLECULE
1ksw_NBS_1_INTS_M
   59     0    12     0     0
SMALL
NO_CHARGES


@<TRIPOS>ATOM
      1 NZ         -5.3970   51.1475    1.2900 N.4       3 LYC4        0.0000 
      2 NZ         -4.8480   50.5340    0.3820 N.4      11 LYL4        0.0000 
      3 NZ         -5.9460   51.7610    2.1980 N.4       7 LYP4        0.0000 
      4 N          -5.3970   51.1475    1.2900 N.am      2 SEC2        0.0000 
      5 N          -4.8480   50.5340    0.3820 N.am     10 SEL2        0.0000 
      6 N          -5.9460   51.7610    2.1980 N.am      6 SEP2        0.0000 
      7 CA          2.7660   51.6060   -0.2740 C.3       4 GLC5        0.0000 
      8 CA          1.2840   50.0480    0.1960 C.3      12 GLL5        0.0000 
      9 CA          4.2480   53.1640   -0.7440 C.3       8 GLP5        0.0000 
     10 CA          1.0565   51.8905    0.7895 C.3       4 GLC5        0.0000 
     11 CA          0.8290   53.7330    1.3830 C.3       8 GLP5        0.0000 
     12 CA          4.8055   52.0545    2.3730 C.3       4 GLC5        0.0000 
     13 CA          4.3560   50.4370    3.2780 C.3      12 GLL5        0.0000 
     14 CA          5.2550   53.6720    1.4680 C.3       8 GLP5        0.0000 
     15 CA          5.2130   49.6010    5.0780 C.3       4 GLC5        0.0000 
     16 CA          6.0700   48.7650    6.8780 C.3       8 GLP5        0.0000 
     17 CA          2.8590   49.0930    4.2525 C.3       4 GLC5        0.0000 
     18 CA          1.3620   47.7490    5.2270 C.3       8 GLP5        0.0000 
     19 N           4.7670   50.3860    5.7725 N.am      2 SEC2        0.0000 
     20 N           3.9830   50.6480    4.5380 N.am     10 SEL2        0.0000 
     21 N           5.5510   50.1240    7.0070 N.am      6 SEP2        0.0000 
     22 CA          2.7365   52.5535    5.5730 C.3       4 GLC5        0.0000 
     23 CA          2.6670   50.7150    4.8390 C.3      12 GLL5        0.0000 
     24 CA          2.8060   54.3920    6.3070 C.3       8 GLP5        0.0000 
     25 CA          4.0970   51.5560    6.3455 C.3       4 GLC5        0.0000 
     26 CA          5.5270   52.3970    7.8520 C.3       8 GLP5        0.0000 
     27 CA          3.8045   49.2395    5.7965 C.3       4 GLC5        0.0000 
     28 CA          4.9420   47.7640    6.7540 C.3       8 GLP5        0.0000 
     29 O           2.6985   51.1940    7.4210 O.2       1 ALC1        0.0000 
     30 O           2.3000   50.9860    6.1610 O.2       9 ALL1        0.0000 
     31 O           3.0970   51.4020    8.6810 O.2       5 ALP1        0.0000 
     32 CA          2.4790   49.2685    7.3060 C.3       4 GLC5        0.0000 
     33 CA          0.9770   50.7440    6.7120 C.3      12 GLL5        0.0000 
     34 CA          3.9810   47.7930    7.9000 C.3       8 GLP5        0.0000 
     35 CA          1.1695   49.2465    5.9695 C.3       4 GLC5        0.0000 
     36 CA         -0.3330   56.0610    5.3555 C.3       4 GLC5        0.0000 
     37 CA         -0.7240   54.0910    5.7980 C.3      12 GLL5        0.0000 
     38 CA          0.0580   58.0310    4.9130 C.3       8 GLP5        0.0000 
     39 CA          1.6760   47.4345    1.5765 C.3       4 GLC5        0.0000 
     40 CA          1.6020   48.6060   -0.1670 C.3      12 GLL5        0.0000 
     41 CA          1.7500   46.2630    3.3200 C.3       8 GLP5        0.0000 
     42 CA          1.4233   52.0910    2.2652 C.3       4 GLC5        0.0000 
     43 CA          2.2810   50.3380    2.5230 C.3      12 GLL5        0.0000 
     44 CA          1.8521   49.1655    4.6101 C.3       4 GLC5        0.0000 
     45 CA         -0.0738   50.3753    8.2748 C.3       4 GLC5        0.0000 
     46 CA          0.0740   52.0090    6.7670 C.3      12 GLL5        0.0000 
     47 CA         -0.6730   49.3740    9.8100 C.3       8 GLP5        0.0000 
     48 CA         -0.9710   51.0463    8.8205 C.3       4 GLC5        0.0000 
     49 CA         -0.8340   52.1600    7.8060 C.3      12 GLL5        0.0000 
     50 CA          0.8117   54.2793    6.3128 C.3       4 GLC5        0.0000 
     51 CA         -1.6410   54.2420    6.8390 C.3      12 GLL5        0.0000 
     52 CA         -2.4937   54.9093    4.9173 C.3       4 GLC5        0.0000 
     53 CA         -3.8050   55.6520    3.5160 C.3       8 GLP5        0.0000 
     54 CA         -0.6615   54.1561    8.8850 C.3       4 GLC5        0.0000 
     55 CA          0.1320   54.8320   10.4350 C.3       8 GLP5        0.0000 
     56 CA          1.5691   53.2816    6.2819 C.3       4 GLC5        0.0000 
     57 CA          0.1390   52.9660    5.7740 C.3      12 GLL5        0.0000 
     58 CA          1.0795   46.3967   -0.4070 C.3       4 GLC5        0.0000 
     59 CA          1.1230   44.4190   -0.2050 C.3       8 GLP5        0.0000 
@<TRIPOS>BOND
@<TRIPOS>SUBSTRUCTURE
     1 ALC1       29 GROUP        1 X    ALC  0     ROOT ALC X 1
     2 SEC2        4 GROUP        1 X    SEC  0     **** SEC X 2
     3 LYC4        1 GROUP        1 X    LYC  0     **** LYC X 4
     4 GLC5        7 GROUP        1 X    GLC  0     **** GLC X 6
     5 ALP1       31 GROUP        1 Y    ALP  0     ROOT ALP Y 8
     6 SEP2        6 GROUP        1 Y    SEP  0     **** SEP Y 9
     7 LYP4        3 GROUP        1 Y    LYP  0     **** LYP Y 11
     8 GLP5        9 GROUP        1 Y    GLP  0     **** GLP Y 13
     9 ALL1       30 GROUP        1 Z    ALL  0     ROOT ALL Z 15
    10 SEL2        5 GROUP        1 Z    SEL  0     **** SEL Z 16
    11 LYL4        2 GROUP        1 Z    LYL  0     **** LYL Z 18
    12 GLL5        8 GROUP        1 Z    GLL  0     **** GLL Z 20
@<TRIPOS>SET

