#    Name: 1ksw_NBS_1_ligand
#    Modification time : Mon Apr  7 13:47:50 2014

@<TRIPOS>MOLECULE
1ksw_NBS_1_ligand
   52    55     1     0     0
SMALL
NO_CHARGES


@<TRIPOS>ATOM
      1 PB         -4.7070   48.1450   -1.9340 P.3       1 NBS1        0.0000 
      2 O4P        -5.0240   48.6850   -3.2930 O.co2     1 NBS1        0.0000 
      3 O5P        -5.8080   48.2840   -0.9090 O.co2     1 NBS1        0.0000 
      4 O6P        -3.9720   46.8260   -1.9400 O.co2     1 NBS1        0.0000 
      5 PA         -3.5430   50.2600   -0.2760 P.3       1 NBS1        0.0000 
      6 O1P        -2.6870   51.4060   -0.6610 O.co2     1 NBS1        0.0000 
      7 O2P        -4.8480   50.5340    0.3820 O.co2     1 NBS1        0.0000 
      8 O3P        -3.5640   49.3110   -1.6210 O.3       1 NBS1        0.0000 
      9 O5'        -2.6100   49.4210    0.7400 O.3       1 NBS1        0.0000 
     10 C5'        -1.5730   48.5330    0.3070 C.3       1 NBS1        0.0000 
     11 C4'        -0.6510   49.1140   -0.7840 C.3       1 NBS1        0.0000 
     12 O4'        -0.0100   50.3640   -0.3810 O.3       1 NBS1        0.0000 
     13 C1'         1.2840   50.0480    0.1960 C.3       1 NBS1        0.0000 
     14 N9          1.2160   50.2210    1.6630 N.pl3     1 NBS1        0.0000 
     15 C4          2.2810   50.3380    2.5230 C.ar      1 NBS1        0.0000 
     16 N3          3.5890   50.2680    2.2000 N.ar      1 NBS1        0.0000 
     17 C2          4.3560   50.4370    3.2780 C.ar      1 NBS1        0.0000 
     18 N1          3.9830   50.6480    4.5380 N.ar      1 NBS1        0.0000 
     19 C6          2.6670   50.7150    4.8390 C.ar      1 NBS1        0.0000 
     20 N6          2.3000   50.9860    6.1610 N.pl3     1 NBS1        0.0000 
     21 CB1         0.9770   50.7440    6.7120 C.3       1 NBS1        0.0000 
     22 CB2         0.0740   52.0090    6.7670 C.ar      1 NBS1        0.0000 
     23 CB3        -0.8340   52.1600    7.8060 C.ar      1 NBS1        0.0000 
     24 CB4        -1.7040   53.2770    7.8560 C.ar      1 NBS1        0.0000 
     25 CB5        -1.6410   54.2420    6.8390 C.ar      1 NBS1        0.0000 
     26 CB6        -0.7240   54.0910    5.7980 C.ar      1 NBS1        0.0000 
     27 CB7         0.1390   52.9660    5.7740 C.ar      1 NBS1        0.0000 
     28 C5          1.7540   50.5600    3.7720 C.ar      1 NBS1        0.0000 
     29 N7          0.3700   50.5660    3.7120 N.2       1 NBS1        0.0000 
     30 C8          0.1070   50.3590    2.4570 C.2       1 NBS1        0.0000 
     31 C2'         1.6020   48.6060   -0.1670 C.3       1 NBS1        0.0000 
     32 O2'         2.8500   48.5220   -0.8500 O.3       1 NBS1        0.0000 
     33 C3'         0.4700   48.1430   -1.0510 C.3       1 NBS1        0.0000 
     34 O3'         0.8100   48.2310   -2.4170 O.3       1 NBS1        0.0000 
     35 H          -1.9949   47.5837   -0.0955 H         1 NBS1        0.0000 
     36 H          -0.9197   48.2287    1.1566 H         1 NBS1        0.0000 
     37 H          -1.2094   49.2429   -1.6855 H         1 NBS1        0.0000 
     38 H           2.0407   50.6793   -0.2202 H         1 NBS1        0.0000 
     39 H           5.4476   50.3962    3.1000 H         1 NBS1        0.0000 
     40 H           3.0116   51.3913    6.8161 H         1 NBS1        0.0000 
     41 H           1.0418   50.3455    7.7442 H         1 NBS1        0.0000 
     42 H           0.4323   49.9810    6.1207 H         1 NBS1        0.0000 
     43 H          -0.8857   51.4564    8.5577 H         1 NBS1        0.0000 
     44 H          -2.3646   53.3730    8.6228 H         1 NBS1        0.0000 
     45 H          -2.2663   55.0516    6.8639 H         1 NBS1        0.0000 
     46 H          -0.6666   54.7845    5.0493 H         1 NBS1        0.0000 
     47 H           0.8145   52.8770    5.0019 H         1 NBS1        0.0000 
     48 H          -0.8210   50.2987    2.0634 H         1 NBS1        0.0000 
     49 H           1.5861   48.0268    0.7345 H         1 NBS1        0.0000 
     50 H           0.1600   47.1791   -0.7491 H         1 NBS1        0.0000 
     51 H           3.1418   49.4705   -0.9732 H         1 NBS1        0.0000 
     52 H           1.7757   48.4906   -2.4270 H         1 NBS1        0.0000 
@<TRIPOS>BOND
     1    2    1 ar   
     2    3    1 ar   
     3    4    1 ar   
     4    8    1 1    
     5    6    5 ar   
     6    7    5 ar   
     7    8    5 1    
     8    9    5 1    
     9   10    9 1    
    10   11   10 1    
    11   35   10 1    
    12   36   10 1    
    13   12   11 1    
    14   33   11 1    
    15   37   11 1    
    16   13   12 1    
    17   14   13 1    
    18   31   13 1    
    19   38   13 1    
    20   15   14 1    
    21   30   14 1    
    22   16   15 ar   
    23   28   15 ar   
    24   17   16 ar   
    25   18   17 ar   
    26   39   17 1    
    27   19   18 ar   
    28   20   19 1    
    29   28   19 ar   
    30   21   20 1    
    31   40   20 1    
    32   22   21 1    
    33   41   21 1    
    34   42   21 1    
    35   23   22 ar   
    36   27   22 ar   
    37   24   23 ar   
    38   43   23 1    
    39   25   24 ar   
    40   44   24 1    
    41   26   25 ar   
    42   45   25 1    
    43   27   26 ar   
    44   46   26 1    
    45   47   27 1    
    46   29   28 1    
    47   30   29 2    
    48   48   30 1    
    49   32   31 1    
    50   33   31 1    
    51   49   31 1    
    52   51   32 1    
    53   34   33 1    
    54   50   33 1    
    55   52   34 1    
@<TRIPOS>SUBSTRUCTURE
     1 NBS1        1 GROUP   
@<TRIPOS>SET

