#    Name: 2fyu_FDN_1_INTS_M
#    Modification time : Tue Mar 25 13:14:56 2014

@<TRIPOS>MOLECULE
2fyu_FDN_1_INTS_M
   66     0     6     0     0
SMALL
NO_CHARGES


@<TRIPOS>ATOM
      1 CA         71.8525   58.3355  166.7365 C.3       2 GLC5        0.0000 
      2 CA         70.3530   56.8640  166.2340 C.3       6 GLL5        0.0000 
      3 CA         73.3520   59.8070  167.2390 C.3       4 GLP5        0.0000 
      4 CA         69.6775   55.4575  165.4170 C.3       2 GLC5        0.0000 
      5 CA         69.0020   54.0510  164.6000 C.3       4 GLP5        0.0000 
      6 CA         70.0335   56.1815  161.9145 C.3       2 GLC5        0.0000 
      7 CA         70.9800   57.7710  161.6220 C.3       6 GLL5        0.0000 
      8 CA         69.0870   54.5920  162.2070 C.3       4 GLP5        0.0000 
      9 CA         70.5045   60.0095  161.1150 C.3       2 GLC5        0.0000 
     10 CA         69.6480   59.2600  162.8890 C.3       6 GLL5        0.0000 
     11 CA         71.3610   60.7590  159.3410 C.3       4 GLP5        0.0000 
     12 CA         68.8845   61.6355  163.2260 C.3       2 GLC5        0.0000 
     13 CA         69.0960   59.6250  164.1260 C.3       6 GLL5        0.0000 
     14 CA         68.6730   63.6460  162.3260 C.3       4 GLP5        0.0000 
     15 CA         65.8065   60.2275  166.9690 C.3       2 GLC5        0.0000 
     16 CA         67.6480   60.4300  166.5420 C.3       6 GLL5        0.0000 
     17 CA         63.9650   60.0250  167.3960 C.3       4 GLP5        0.0000 
     18 CA         66.4340   60.6085  164.9020 C.3       2 GLC5        0.0000 
     19 CA         65.2200   60.7870  163.2620 C.3       4 GLP5        0.0000 
     20 N          65.6010   57.2260  167.4725 N.am      1 SEC2        0.0000 
     21 N          67.0690   57.5330  167.1350 N.am      5 SEL2        0.0000 
     22 N          64.1330   56.9190  167.8100 N.am      3 SEP2        0.0000 
     23 CA         71.5865   55.6660  168.3020 C.3       2 GLC5        0.0000 
     24 CA         69.8770   55.4380  169.1160 C.3       6 GLL5        0.0000 
     25 CA         73.2960   55.8940  167.4880 C.3       4 GLP5        0.0000 
     26 CA         71.5900   54.4100  168.0365 C.3       2 GLC5        0.0000 
     27 CA         70.3500   54.1410  169.4120 C.3       6 GLL5        0.0000 
     28 CA         72.8300   54.6790  166.6610 C.3       4 GLP5        0.0000 
     29 CA         66.5670   53.2895  171.3195 C.3       2 GLC5        0.0000 
     30 CA         68.6220   53.9250  171.1550 C.3       6 GLL5        0.0000 
     31 CA         64.5120   52.6540  171.4840 C.3       4 GLP5        0.0000 
     32 CA         67.3280   53.2785  170.0105 C.3       2 GLC5        0.0000 
     33 CA         66.0340   52.6320  168.8660 C.3       4 GLP5        0.0000 
     34 CA         71.5735   59.1457  164.7485 C.3       2 GLC5        0.0000 
     35 CA         70.1120   57.6790  165.1930 C.3       6 GLL5        0.0000 
     36 CA         72.7430   60.7910  164.9220 C.3       4 GLP5        0.0000 
     37 CA         68.7100   56.3558  164.0670 C.3       2 GLC5        0.0000 
     38 CA         67.0160   55.2110  163.5590 C.3       4 GLP5        0.0000 
     39 CA         71.6471   55.9879  165.7481 C.3       2 GLC5        0.0000 
     40 CA         70.6960   57.3220  163.9570 C.3       6 GLL5        0.0000 
     41 CA         71.1995   58.6663  160.4963 C.3       2 GLC5        0.0000 
     42 CA         70.4680   58.1240  162.8110 C.3       6 GLL5        0.0000 
     43 CA         71.6750   59.3850  158.7760 C.3       4 GLP5        0.0000 
     44 CA         71.4005   59.7415  163.8860 C.3       2 GLC5        0.0000 
     45 CA         70.3356   60.5749  165.5151 C.3       2 GLC5        0.0000 
     46 CA         71.7470   61.8950  165.3570 C.3       4 GLP5        0.0000 
     47 CA         68.3473   61.5433  167.6268 C.3       2 GLC5        0.0000 
     48 CA         68.6710   59.2870  166.6370 C.3       6 GLL5        0.0000 
     49 CA         68.5350   63.2280  168.6640 C.3       4 GLP5        0.0000 
     50 CA         70.3635   56.3658  170.7953 C.3       2 GLC5        0.0000 
     51 CA         68.7750   55.9890  169.8250 C.3       6 GLL5        0.0000 
     52 CA         71.4010   57.0180  172.1200 C.3       4 GLP5        0.0000 
     53 CA         66.9263   55.2792  169.4195 C.3       2 GLC5        0.0000 
     54 CA         65.3830   54.9500  168.5010 C.3       4 GLP5        0.0000 
     55 CA         70.7182   55.3912  171.0217 C.3       2 GLC5        0.0000 
     56 CA         71.5512   52.7668  170.1507 C.3       2 GLC5        0.0000 
     57 CA         73.0670   51.7690  170.3780 C.3       4 GLP5        0.0000 
     58 CA         68.8377   52.6092  172.4175 C.3       2 GLC5        0.0000 
     59 CA         69.7210   53.3880  170.4350 C.3       6 GLL5        0.0000 
     60 CA         68.5040   51.5620  174.0400 C.3       4 GLP5        0.0000 
     61 CA         68.3671   53.6664  168.7837 C.3       2 GLC5        0.0000 
     62 CA         66.8170   53.2440  167.7180 C.3       4 GLP5        0.0000 
     63 CA         67.4420   55.1508  172.4855 C.3       2 GLC5        0.0000 
     64 CA         66.4910   55.7250  173.9680 C.3       4 GLP5        0.0000 
     65 CA         69.8970   55.7973  171.5615 C.3       2 GLC5        0.0000 
     66 CA         68.1640   55.2280  170.8510 C.3       6 GLL5        0.0000 
@<TRIPOS>BOND
@<TRIPOS>SUBSTRUCTURE
     1 SEC2       20 GROUP        1 X    SEC  0     ROOT SEC X 2
     2 GLC5        1 GROUP        1 X    GLC  0     **** GLC X 6
     3 SEP2       22 GROUP        1 Y    SEP  0     ROOT SEP Y 9
     4 GLP5        3 GROUP        1 Y    GLP  0     **** GLP Y 13
     5 SEL2       21 GROUP        1 Z    SEL  0     ROOT SEL Z 16
     6 GLL5        2 GROUP        1 Z    GLL  0     **** GLL Z 20
@<TRIPOS>SET

