#    Name: 2fyu_FDN_1_ligand
#    Modification time : Tue Mar 25 13:14:56 2014

@<TRIPOS>MOLECULE
2fyu_FDN_1_ligand
   35    37     1     0     0
SMALL
NO_CHARGES


@<TRIPOS>ATOM
      1 F13        70.3530   56.8640  166.2340 F         1 FDN400      0.0000 
      2 C13        70.1120   57.6790  165.1930 C.ar      1 FDN400      0.0000 
      3 C12        70.6960   57.3220  163.9570 C.ar      1 FDN400      0.0000 
      4 C11        70.4680   58.1240  162.8110 C.ar      1 FDN400      0.0000 
      5 F11        70.9800   57.7710  161.6220 F         1 FDN400      0.0000 
      6 C10        69.6480   59.2600  162.8890 C.ar      1 FDN400      0.0000 
      7 C9         69.0960   59.6250  164.1260 C.ar      1 FDN400      0.0000 
      8 C8         69.2590   58.8200  165.2930 C.ar      1 FDN400      0.0000 
      9 C5         68.6710   59.2870  166.6370 C.3       1 FDN400      0.0000 
     10 C7         67.6480   60.4300  166.5420 C.3       1 FDN400      0.0000 
     11 O4         69.7420   59.7140  167.4850 O.3       1 FDN400      0.0000 
     12 C3         69.6960   58.9550  168.7120 C.2       1 FDN400      0.0000 
     13 O3         70.4860   59.1470  169.6280 O.2       1 FDN400      0.0000 
     14 N2         68.6870   58.0820  168.6490 N.am      1 FDN400      0.0000 
     15 C6         68.0320   58.1930  167.4860 C.2       1 FDN400      0.0000 
     16 O6         67.0690   57.5330  167.1350 O.2       1 FDN400      0.0000 
     17 N1         68.3270   57.2630  169.6430 N.pl3     1 FDN400      0.0000 
     18 C21        68.7750   55.9890  169.8250 C.ar      1 FDN400      0.0000 
     19 C22        69.8770   55.4380  169.1160 C.ar      1 FDN400      0.0000 
     20 C23        70.3500   54.1410  169.4120 C.ar      1 FDN400      0.0000 
     21 C24        69.7210   53.3880  170.4350 C.ar      1 FDN400      0.0000 
     22 C25        68.6220   53.9250  171.1550 C.ar      1 FDN400      0.0000 
     23 C26        68.1640   55.2280  170.8510 C.ar      1 FDN400      0.0000 
     24 H          71.2803   56.4899  163.8877 H         1 FDN400      0.0000 
     25 H          69.4555   59.8142  162.0555 H         1 FDN400      0.0000 
     26 H          68.5530   60.5017  164.2051 H         1 FDN400      0.0000 
     27 H          67.6193   57.6348  170.3708 H         1 FDN400      0.0000 
     28 H          70.3305   55.9917  168.3824 H         1 FDN400      0.0000 
     29 H          71.1336   53.7489  168.8980 H         1 FDN400      0.0000 
     30 H          70.0615   52.4491  170.6570 H         1 FDN400      0.0000 
     31 H          68.1707   53.3773  171.8806 H         1 FDN400      0.0000 
     32 H          67.3807   55.6269  171.3790 H         1 FDN400      0.0000 
     33 H          68.0445   61.2499  166.1290 H         1 FDN400      0.0000 
     34 H          66.8568   60.1750  165.9861 H         1 FDN400      0.0000 
     35 H          67.3011   60.6937  167.4421 H         1 FDN400      0.0000 
@<TRIPOS>BOND
     1    2    1 1    
     2    3    2 ar   
     3    8    2 ar   
     4    4    3 ar   
     5   24    3 1    
     6    5    4 1    
     7    6    4 ar   
     8    7    6 ar   
     9   25    6 1    
    10    8    7 ar   
    11   26    7 1    
    12    9    8 1    
    13   10    9 1    
    14   11    9 1    
    15   15    9 1    
    16   33   10 1    
    17   34   10 1    
    18   35   10 1    
    19   12   11 1    
    20   13   12 2    
    21   14   12 am   
    22   15   14 am   
    23   17   14 1    
    24   16   15 2    
    25   18   17 1    
    26   27   17 1    
    27   19   18 ar   
    28   23   18 ar   
    29   20   19 ar   
    30   28   19 1    
    31   21   20 ar   
    32   29   20 1    
    33   22   21 ar   
    34   30   21 1    
    35   23   22 ar   
    36   31   22 1    
    37   32   23 1    
@<TRIPOS>SUBSTRUCTURE
     1 FDN400      1 GROUP   
@<TRIPOS>SET

