#    Name: 1t4c_COA_1_INTS_M
#    Modification time : Tue Mar 25 04:21:14 2014

@<TRIPOS>MOLECULE
1t4c_COA_1_INTS_M
   77     0    12     0     0
SMALL
NO_CHARGES


@<TRIPOS>ATOM
      1 N         102.4600   -1.6190   18.0070 N.am      2 SEC2        0.0000 
      2 N         102.1050   -0.4150   17.0830 N.am     10 SEL2        0.0000 
      3 N         102.8150   -2.8230   18.9310 N.am      6 SEP2        0.0000 
      4 CA        101.6095   -2.4565   17.0575 C.3       4 GLC5        0.0000 
      5 CA        102.4990   -1.0870   15.9370 C.3      12 GLL5        0.0000 
      6 CA        100.7200   -3.8260   18.1780 C.3       8 GLP5        0.0000 
      7 CA        103.9050   -2.2360   15.3255 C.3       4 GLC5        0.0000 
      8 CA        105.3110   -3.3850   14.7140 C.3       8 GLP5        0.0000 
      9 CA        100.9615   -1.9095   15.0735 C.3       4 GLC5        0.0000 
     10 CA         99.4240   -2.7320   14.2100 C.3       8 GLP5        0.0000 
     11 CA        101.9755    2.4855   15.7660 C.3       4 GLC5        0.0000 
     12 CA        100.5870    0.9120   15.7910 C.3      12 GLL5        0.0000 
     13 CA        103.3640    4.0590   15.7410 C.3       8 GLP5        0.0000 
     14 CA        101.5340    2.5715   17.4650 C.3       4 GLC5        0.0000 
     15 CA        101.1520    0.5790   17.0260 C.3      12 GLL5        0.0000 
     16 CA        101.9160    4.5640   17.9040 C.3       8 GLP5        0.0000 
     17 O         101.3520    0.5965   19.4015 O.2       1 ALC1        0.0000 
     18 O         100.6440    1.0610   18.1570 O.2       9 ALL1        0.0000 
     19 O         102.0600    0.1320   20.6460 O.2       5 ALP1        0.0000 
     20 CA         97.1220    0.5495   12.3500 C.3       4 GLC5        0.0000 
     21 CA         99.0570   -0.0800   11.4500 C.3      12 GLL5        0.0000 
     22 CA         95.1870    1.1790   13.2500 C.3       8 GLP5        0.0000 
     23 NZ         99.6495   -3.8235    7.1045 N.4       3 LYC4        0.0000 
     24 NZ        100.3200   -2.5610    7.6790 N.4      11 LYL4        0.0000 
     25 NZ         97.8510   -4.5480    6.1270 N.4       7 LYP4        0.0000 
     26 N          99.6495   -3.8235    7.1045 N.am      2 SEC2        0.0000 
     27 N         100.3200   -2.5610    7.6790 N.am     10 SEL2        0.0000 
     28 N          98.9790   -5.0860    6.5300 N.am      6 SEP2        0.0000 
     29 N          98.9660   -2.9130    7.0355 N.am      2 SEC2        0.0000 
     30 N          97.6120   -3.2650    6.3920 N.am      6 SEP2        0.0000 
     31 N          98.3530   -1.9380    6.6545 N.am      2 SEC2        0.0000 
     32 N          99.0940   -0.6110    6.9170 N.am     10 SEL2        0.0000 
     33 N         101.6150    2.5385   12.2075 N.am      2 SEC2        0.0000 
     34 N         100.9260    1.3670   11.3210 N.am     10 SEL2        0.0000 
     35 N         102.3040    3.7100   13.0940 N.am      6 SEP2        0.0000 
     36 CA         93.8170    7.0290    4.5870 C.3       4 GLC5        0.0000 
     37 CA         93.3470    7.2520    6.7290 C.3      12 GLL5        0.0000 
     38 CA         94.2870    6.8060    2.4450 C.3       8 GLP5        0.0000 
     39 CA         93.6845    8.9100    6.3510 C.3       4 GLC5        0.0000 
     40 CA         94.0220   10.5680    5.9730 C.3       8 GLP5        0.0000 
     41 O          91.1585    4.0115   10.0165 O.2       1 ALC1        0.0000 
     42 O          90.7530    4.3000    8.3740 O.2       9 ALL1        0.0000 
     43 O          91.5640    3.7230   11.6590 O.2       5 ALP1        0.0000 
     44 CA         88.4040    5.9405    5.8590 C.3       4 GLC5        0.0000 
     45 CA         88.6340    5.5710    7.8530 C.3      12 GLL5        0.0000 
     46 CA         88.1740    6.3100    3.8650 C.3       8 GLP5        0.0000 
     47 CA         87.2455    6.4880    7.5485 C.3       4 GLC5        0.0000 
     48 CA         85.8570    7.4050    7.2440 C.3       8 GLP5        0.0000 
     49 CA         89.0540   10.2735    7.0385 C.3       4 GLC5        0.0000 
     50 CA         89.0730    9.1440    8.7450 C.3      12 GLL5        0.0000 
     51 CA         89.0350   11.4030    5.3320 C.3       8 GLP5        0.0000 
     52 CA         87.3630    9.1070    7.9075 C.3       4 GLC5        0.0000 
     53 CA         85.6530    9.0700    7.0700 C.3       8 GLP5        0.0000 
     54 CA         90.9245   10.5660    8.4200 C.3       4 GLC5        0.0000 
     55 CA         89.8830    9.6470    9.9280 C.3      12 GLL5        0.0000 
     56 CA         91.9660   11.4850    6.9120 C.3       8 GLP5        0.0000 
     57 CA         88.3365   10.7950   13.0815 C.3       4 GLC5        0.0000 
     58 CA         88.8410   10.0800   11.3500 C.3      12 GLL5        0.0000 
     59 CA         87.8320   11.5100   14.8130 C.3       8 GLP5        0.0000 
     60 CA         87.2255    8.9905   11.8185 C.3       4 GLC5        0.0000 
     61 CA         85.6100    7.9010   12.2870 C.3       8 GLP5        0.0000 
     62 CA         86.9645   11.0665   11.3035 C.3       4 GLC5        0.0000 
     63 CA         85.0880   12.0530   11.2570 C.3       8 GLP5        0.0000 
     64 CA        100.1070   -1.0788   14.7097 C.3       4 GLC5        0.0000 
     65 CA         99.7430   -0.4281   17.0409 C.3       4 GLC5        0.0000 
     66 CA         98.5150   -1.4330   17.9640 C.3       8 GLP5        0.0000 
     67 CA         99.5705   -1.3037   13.0010 C.3       4 GLC5        0.0000 
     68 CA        100.3770    0.3290   12.1340 C.3      12 GLL5        0.0000 
     69 CA         97.4708   -1.1738   10.1840 C.3       4 GLC5        0.0000 
     70 CA         95.7480   -2.4350    9.6450 C.3       8 GLP5        0.0000 
     71 CA         93.1505    8.9912    7.8750 C.3       4 GLC5        0.0000 
     72 CA         93.4840    6.7210    8.1630 C.3      12 GLL5        0.0000 
     73 CA         93.2340   10.8470    7.0960 C.3       8 GLP5        0.0000 
     74 CA         87.6715    3.4327    7.5910 C.3       4 GLC5        0.0000 
     75 CA         86.3620    1.9660    7.2090 C.3       8 GLP5        0.0000 
     76 CA         90.5185   10.2708   11.9385 C.3       4 GLC5        0.0000 
     77 CA         91.6750   10.6780   13.2380 C.3       8 GLP5        0.0000 
@<TRIPOS>BOND
@<TRIPOS>SUBSTRUCTURE
     1 ALC1       17 GROUP        1 X    ALC  0     ROOT ALC X 1
     2 SEC2        1 GROUP        1 X    SEC  0     **** SEC X 2
     3 LYC4       23 GROUP        1 X    LYC  0     **** LYC X 4
     4 GLC5        4 GROUP        1 X    GLC  0     **** GLC X 6
     5 ALP1       19 GROUP        1 Y    ALP  0     ROOT ALP Y 8
     6 SEP2        3 GROUP        1 Y    SEP  0     **** SEP Y 9
     7 LYP4       25 GROUP        1 Y    LYP  0     **** LYP Y 11
     8 GLP5        6 GROUP        1 Y    GLP  0     **** GLP Y 13
     9 ALL1       18 GROUP        1 Z    ALL  0     ROOT ALL Z 15
    10 SEL2        2 GROUP        1 Z    SEL  0     **** SEL Z 16
    11 LYL4       24 GROUP        1 Z    LYL  0     **** LYL Z 18
    12 GLL5        5 GROUP        1 Z    GLL  0     **** GLL Z 20
@<TRIPOS>SET

