#    Name: 1t4c_COA_1_ligand
#    Modification time : Tue Mar 25 04:21:15 2014

@<TRIPOS>MOLECULE
1t4c_COA_1_ligand
   79    81     1     0     0
SMALL
NO_CHARGES


@<TRIPOS>ATOM
      1 N1A       102.1050   -0.4150   17.0830 N.ar      1 COA1        0.0000 
      2 C2A       102.4990   -1.0870   15.9370 C.ar      1 COA1        0.0000 
      3 N3A       101.9430   -0.7490   14.7100 N.ar      1 COA1        0.0000 
      4 C4A       100.9930    0.2370   14.6280 C.ar      1 COA1        0.0000 
      5 C5A       100.5870    0.9120   15.7910 C.ar      1 COA1        0.0000 
      6 C6A       101.1520    0.5790   17.0260 C.ar      1 COA1        0.0000 
      7 N6A       100.6440    1.0610   18.1570 N.pl3     1 COA1        0.0000 
      8 N7A        99.6550    1.8250   15.4310 N.2       1 COA1        0.0000 
      9 C8A        99.4660    1.7450   14.0870 C.2       1 COA1        0.0000 
     10 N9A       100.2780    0.7650   13.5630 N.pl3     1 COA1        0.0000 
     11 C1B       100.3770    0.3290   12.1340 C.3       1 COA1        0.0000 
     12 C2B        99.0570   -0.0800   11.4500 C.3       1 COA1        0.0000 
     13 O2B        98.7040   -1.4430   11.5930 O.3       1 COA1        0.0000 
     14 C3B        99.3300    0.2550    9.9960 C.3       1 COA1        0.0000 
     15 O3B        99.9970   -0.8400    9.3840 O.3       1 COA1        0.0000 
     16 P3B       100.2630   -1.0940    7.8050 P.3       1 COA1        0.0000 
     17 O7A       100.3200   -2.5610    7.6790 O.co2     1 COA1        0.0000 
     18 O8A       101.5740   -0.4040    7.3450 O.co2     1 COA1        0.0000 
     19 O9A        99.0940   -0.6110    6.9170 O.co2     1 COA1        0.0000 
     20 C4B       100.2340    1.4910   10.0850 C.3       1 COA1        0.0000 
     21 O4B       100.9260    1.3670   11.3210 O.3       1 COA1        0.0000 
     22 C5B        99.5000    2.8370   10.0210 C.3       1 COA1        0.0000 
     23 O5B        98.1140    2.6930   10.2920 O.3       1 COA1        0.0000 
     24 P1A        96.9670    3.4440    9.4280 P.3       1 COA1        0.0000 
     25 O1A        95.6720    3.3270   10.1250 O.co2     1 COA1        0.0000 
     26 O2A        96.8490    2.8820    7.9900 O.co2     1 COA1        0.0000 
     27 O3A        97.4320    5.0130    9.4380 O.3       1 COA1        0.0000 
     28 P2A        97.4160    6.0160    8.1460 P.3       1 COA1        0.0000 
     29 O4A        98.0600    5.3210    6.9900 O.co2     1 COA1        0.0000 
     30 O5A        98.0800    7.3610    8.4890 O.co2     1 COA1        0.0000 
     31 O6A        95.8660    6.3110    7.7630 O.3       1 COA1        0.0000 
     32 CBP        93.4840    6.7210    8.1630 C.3       1 COA1        0.0000 
     33 CCP        94.9390    6.9340    8.6370 C.3       1 COA1        0.0000 
     34 CDP        92.6500    7.5500    9.1450 C.3       1 COA1        0.0000 
     35 CEP        93.3470    7.2520    6.7290 C.3       1 COA1        0.0000 
     36 CAP        93.0570    5.2260    8.1770 C.3       1 COA1        0.0000 
     37 OAP        93.2240    4.7430    9.5030 O.3       1 COA1        0.0000 
     38 C9P        91.6670    4.8950    7.5770 C.2       1 COA1        0.0000 
     39 O9P        91.3610    5.1650    6.2090 O.2       1 COA1        0.0000 
     40 N8P        90.7530    4.3000    8.3740 N.am      1 COA1        0.0000 
     41 C7P        89.3280    4.2280    8.0930 C.3       1 COA1        0.0000 
     42 C6P        88.6340    5.5710    7.8530 C.3       1 COA1        0.0000 
     43 C5P        88.9730    6.6680    8.8660 C.2       1 COA1        0.0000 
     44 O5P        88.8070    6.5160   10.0960 O.2       1 COA1        0.0000 
     45 N4P        89.4670    7.8050    8.3460 N.am      1 COA1        0.0000 
     46 C3P        89.0730    9.1440    8.7450 C.3       1 COA1        0.0000 
     47 C2P        89.8830    9.6470    9.9280 C.3       1 COA1        0.0000 
     48 S1P        88.8410   10.0800   11.3500 S.3       1 COA1        0.0000 
     49 H         103.2024   -1.8356   15.9935 H         1 COA1        0.0000 
     50 H          99.7246    1.4497   18.0959 H         1 COA1        0.0000 
     51 H         101.2273    0.9912   18.9663 H         1 COA1        0.0000 
     52 H          98.8570    2.2888   13.5699 H         1 COA1        0.0000 
     53 H         101.0436   -0.5485   12.0706 H         1 COA1        0.0000 
     54 H          98.2987    0.6043   11.7899 H         1 COA1        0.0000 
     55 H          98.4255    0.5283    9.5373 H         1 COA1        0.0000 
     56 H         100.9424    1.4391    9.2617 H         1 COA1        0.0000 
     57 H          99.6806    3.2613    9.0170 H         1 COA1        0.0000 
     58 H          99.9920    3.5132   10.7431 H         1 COA1        0.0000 
     59 H          95.1001    8.0231    8.7043 H         1 COA1        0.0000 
     60 H          95.0053    6.5362    9.6636 H         1 COA1        0.0000 
     61 H          93.8174    4.7025    7.5242 H         1 COA1        0.0000 
     62 H          91.0555    3.8402    9.2795 H         1 COA1        0.0000 
     63 H          88.7904    3.7177    8.9293 H         1 COA1        0.0000 
     64 H          89.1386    3.5880    7.1967 H         1 COA1        0.0000 
     65 H          87.5387    5.4112    7.8550 H         1 COA1        0.0000 
     66 H          88.8946    5.9303    6.8390 H         1 COA1        0.0000 
     67 H          90.2045    7.7655    7.5819 H         1 COA1        0.0000 
     68 H          88.0056    9.1719    9.0236 H         1 COA1        0.0000 
     69 H          89.2043    9.8558    7.9121 H         1 COA1        0.0000 
     70 H          90.4000   10.5679    9.7376 H         1 COA1        0.0000 
     71 H          90.5412    8.9096   10.3460 H         1 COA1        0.0000 
     72 H          92.7725    7.2420   10.0885 H         1 COA1        0.0000 
     73 H          92.8986    8.5182    9.1181 H         1 COA1        0.0000 
     74 H          91.6724    7.4927    8.9425 H         1 COA1        0.0000 
     75 H          93.5605    8.2273    6.6721 H         1 COA1        0.0000 
     76 H          93.9624    6.7799    6.0978 H         1 COA1        0.0000 
     77 H          92.4187    7.1342    6.3764 H         1 COA1        0.0000 
     78 H          99.0731   -1.8925   10.7796 H         1 COA1        0.0000 
     79 H          94.1093    4.2780    9.4994 H         1 COA1        0.0000 
@<TRIPOS>BOND
     1    2    1 ar   
     2    6    1 ar   
     3    3    2 ar   
     4   49    2 1    
     5    4    3 ar   
     6    5    4 ar   
     7   10    4 1    
     8    6    5 ar   
     9    8    5 1    
    10    7    6 1    
    11   50    7 1    
    12   51    7 1    
    13    9    8 2    
    14   10    9 1    
    15   52    9 1    
    16   11   10 1    
    17   12   11 1    
    18   21   11 1    
    19   53   11 1    
    20   13   12 1    
    21   14   12 1    
    22   54   12 1    
    23   78   13 1    
    24   15   14 1    
    25   20   14 1    
    26   55   14 1    
    27   16   15 1    
    28   17   16 ar   
    29   18   16 ar   
    30   19   16 ar   
    31   21   20 1    
    32   22   20 1    
    33   56   20 1    
    34   23   22 1    
    35   57   22 1    
    36   58   22 1    
    37   24   23 1    
    38   25   24 ar   
    39   26   24 ar   
    40   27   24 1    
    41   28   27 1    
    42   29   28 ar   
    43   30   28 ar   
    44   31   28 1    
    45   33   31 1    
    46   33   32 1    
    47   34   32 1    
    48   35   32 1    
    49   36   32 1    
    50   59   33 1    
    51   60   33 1    
    52   72   34 1    
    53   73   34 1    
    54   74   34 1    
    55   75   35 1    
    56   76   35 1    
    57   77   35 1    
    58   37   36 1    
    59   38   36 1    
    60   61   36 1    
    61   79   37 1    
    62   39   38 2    
    63   40   38 am   
    64   41   40 1    
    65   62   40 1    
    66   42   41 1    
    67   63   41 1    
    68   64   41 1    
    69   43   42 1    
    70   65   42 1    
    71   66   42 1    
    72   44   43 2    
    73   45   43 am   
    74   46   45 1    
    75   67   45 1    
    76   47   46 1    
    77   68   46 1    
    78   69   46 1    
    79   48   47 1    
    80   70   47 1    
    81   71   47 1    
@<TRIPOS>SUBSTRUCTURE
     1 COA1        1 GROUP   
@<TRIPOS>SET

