#    Name: 3m6g_ATP_3_INTS_M
#    Modification time : Mon Mar 24 22:46:24 2014

@<TRIPOS>MOLECULE
3m6g_ATP_3_INTS_M
   78     0    15     0     0
SMALL
NO_CHARGES


@<TRIPOS>ATOM
      1 N         -10.8830  -16.2950  -48.7365 N.am      2 SEC2        0.0000 
      2 N         -12.1410  -16.6020  -48.5030 N.am     12 SEL2        0.0000 
      3 N          -9.6250  -15.9880  -48.9700 N.am      7 SEP2        0.0000 
      4 N         -13.8040  -14.2295  -46.4725 N.am      2 SEC2        0.0000 
      5 N         -14.0340  -15.2520  -47.5040 N.am     12 SEL2        0.0000 
      6 N         -13.5740  -13.2070  -45.4410 N.am      7 SEP2        0.0000 
      7 N         -14.0540  -13.7725  -47.7950 N.am      2 SEC2        0.0000 
      8 N         -14.0740  -12.2930  -48.0860 N.am      7 SEP2        0.0000 
      9 N         -15.1495  -14.5570  -48.1935 N.am      2 SEC2        0.0000 
     10 N         -16.2650  -13.8620  -48.8830 N.am      7 SEP2        0.0000 
     11 Zn        -12.5005  -18.2870  -46.0155 Zn        4 ZIC7        0.0000 
     12 Zn        -13.2720  -17.4790  -46.4620 Zn       14 ZIL7        0.0000 
     13 Zn        -11.7290  -19.0950  -45.5690 Zn        9 ZIP7        0.0000 
     14 NZ         -8.7565  -16.2260  -44.7005 N.4       3 LYC4        0.0000 
     15 NZ         -9.4600  -14.8740  -45.6660 N.4      13 LYL4        0.0000 
     16 NZ         -8.0530  -17.5780  -43.7350 N.4       8 LYP4        0.0000 
     17 N          -9.2030  -14.1540  -46.8580 N.am      2 SEC2        0.0000 
     18 N          -9.4600  -14.8740  -45.6660 N.am     12 SEL2        0.0000 
     19 N          -8.9460  -13.4340  -48.0500 N.am      7 SEP2        0.0000 
     20 N          -8.2010  -14.3715  -45.8520 N.am      2 SEC2        0.0000 
     21 N          -6.9420  -13.8690  -46.0380 N.am      7 SEP2        0.0000 
     22 NZ         -9.3240  -17.3700  -44.4495 N.4       3 LYC4        0.0000 
     23 NZ        -10.5950  -17.1620  -45.1640 N.4      13 LYL4        0.0000 
     24 Zn        -11.1620  -18.1285  -45.3665 Zn        4 ZIC7        0.0000 
     25 Zn        -10.5950  -17.1620  -45.1640 Zn       14 ZIL7        0.0000 
     26 N          -9.3240  -17.3700  -44.4495 N.am      2 SEC2        0.0000 
     27 N         -10.5950  -17.1620  -45.1640 N.am     12 SEL2        0.0000 
     28 N          -8.0530  -17.5780  -43.7350 N.am      7 SEP2        0.0000 
     29 N         -11.8690  -14.6335  -47.6135 N.am      2 SEC2        0.0000 
     30 N         -11.9150  -15.2620  -46.4130 N.am     12 SEL2        0.0000 
     31 N         -11.8230  -14.0050  -48.8140 N.am      7 SEP2        0.0000 
     32 N         -12.7445  -14.2345  -45.9270 N.am      2 SEC2        0.0000 
     33 N         -12.8845  -16.0925  -40.8925 N.am      2 SEC2        0.0000 
     34 N         -12.0830  -16.5340  -42.0750 N.am     12 SEL2        0.0000 
     35 N         -13.6860  -15.6510  -39.7100 N.am      7 SEP2        0.0000 
     36 NZ         -8.8440  -16.6055  -42.9725 N.4       3 LYC4        0.0000 
     37 NZ         -9.6350  -15.6330  -42.2100 N.4      13 LYL4        0.0000 
     38 N          -8.8440  -16.6055  -42.9725 N.am      2 SEC2        0.0000 
     39 N          -9.6350  -15.6330  -42.2100 N.am     12 SEL2        0.0000 
     40 N         -12.6275  -14.8670  -40.7545 N.am      2 SEC2        0.0000 
     41 N         -11.5690  -14.0830  -41.7990 N.am     12 SEL2        0.0000 
     42 CA         -8.9955  -12.8555  -41.9600 C.3       5 GLC5        0.0000 
     43 CA        -11.0230  -12.8000  -42.1280 C.3      15 GLL5        0.0000 
     44 CA         -6.9680  -12.9110  -41.7920 C.3      10 GLP5        0.0000 
     45 N         -13.4460   -8.3140  -41.9490 N.am      2 SEC2        0.0000 
     46 N         -12.6980   -9.6160  -42.8050 N.am     12 SEL2        0.0000 
     47 N         -14.1940   -7.0120  -41.0930 N.am      7 SEP2        0.0000 
     48 O         -12.2690   -9.4450  -44.0655 O.2       1 ALC1        0.0000 
     49 O         -12.6980   -9.6160  -42.8050 O.2      11 ALL1        0.0000 
     50 O         -11.8400   -9.2740  -45.3260 O.2       6 ALP1        0.0000 
     51 N         -13.0175   -7.7240  -40.7830 N.am      2 SEC2        0.0000 
     52 N         -11.8410   -8.4360  -40.4730 N.am     12 SEL2        0.0000 
     53 O         -10.8815   -8.2540  -39.5195 O.2       1 ALC1        0.0000 
     54 O         -11.8410   -8.4360  -40.4730 O.2      11 ALL1        0.0000 
     55 O          -9.9220   -8.0720  -38.5660 O.2       6 ALP1        0.0000 
     56 CA        -13.1220  -12.5505  -39.4565 C.3       5 GLC5        0.0000 
     57 CA        -12.7670  -10.6480  -40.0100 C.3      15 GLL5        0.0000 
     58 CA        -13.4770  -14.4530  -38.9030 C.3      10 GLP5        0.0000 
     59 N         -10.3545  -11.8930  -36.0035 N.am      2 SEC2        0.0000 
     60 N         -11.6250  -11.2130  -36.6190 N.am     12 SEL2        0.0000 
     61 N          -9.0840  -12.5730  -35.3880 N.am      7 SEP2        0.0000 
     62 CA        -13.2315   -8.3315  -35.0425 C.3       5 GLC5        0.0000 
     63 CA        -13.5370  -10.2330  -35.1270 C.3      15 GLL5        0.0000 
     64 CA        -12.9260   -6.4300  -34.9580 C.3      10 GLP5        0.0000 
     65 CA        -14.0940   -7.8965  -35.7150 C.3       5 GLC5        0.0000 
     66 CA        -15.2620   -9.3630  -36.4720 C.3      15 GLL5        0.0000 
     67 CA        -15.1615  -11.3550  -35.5010 C.3       5 GLC5        0.0000 
     68 CA        -15.0610  -13.3470  -34.5300 C.3      10 GLP5        0.0000 
     69 CA        -13.4510  -12.3790  -38.2690 C.3       5 GLC5        0.0000 
     70 CA        -13.4250  -10.3050  -37.6350 C.3      15 GLL5        0.0000 
     71 CA        -12.5285  -13.3715  -40.4712 C.3       5 GLC5        0.0000 
     72 CA        -12.1370  -11.7800  -41.9510 C.3      15 GLL5        0.0000 
     73 CA        -11.6990  -11.4665  -44.0089 C.3       5 GLC5        0.0000 
     74 CA        -11.7640  -11.6250  -45.9550 C.3      10 GLP5        0.0000 
     75 CA        -12.3083   -8.8835  -36.9555 C.3       5 GLC5        0.0000 
     76 CA        -11.5040   -7.3050  -36.9190 C.3      10 GLP5        0.0000 
     77 CA        -14.1148  -11.8865  -35.1340 C.3       5 GLC5        0.0000 
     78 CA        -12.8000  -10.6190  -36.3490 C.3      15 GLL5        0.0000 
@<TRIPOS>BOND
@<TRIPOS>SUBSTRUCTURE
     1 ALC1       48 GROUP        1 X    ALC  0     ROOT ALC X 1
     2 SEC2        1 GROUP        1 X    SEC  0     **** SEC X 2
     3 LYC4       14 GROUP        1 X    LYC  0     **** LYC X 4
     4 ZIC7       11 GROUP        1 X    ZIC  0     **** ZIC X 5
     5 GLC5       42 GROUP        1 X    GLC  0     **** GLC X 6
     6 ALP1       50 GROUP        1 Y    ALP  0     ROOT ALP Y 8
     7 SEP2        3 GROUP        1 Y    SEP  0     **** SEP Y 9
     8 LYP4       16 GROUP        1 Y    LYP  0     **** LYP Y 11
     9 ZIP7       13 GROUP        1 Y    ZIP  0     **** ZIP Y 12
    10 GLP5       44 GROUP        1 Y    GLP  0     **** GLP Y 13
    11 ALL1       49 GROUP        1 Z    ALL  0     ROOT ALL Z 15
    12 SEL2        2 GROUP        1 Z    SEL  0     **** SEL Z 16
    13 LYL4       15 GROUP        1 Z    LYL  0     **** LYL Z 18
    14 ZIL7       12 GROUP        1 Z    ZIL  0     **** ZIL Z 19
    15 GLL5       43 GROUP        1 Z    GLL  0     **** GLL Z 20
@<TRIPOS>SET

