#    Name: 3m6g_ATP_3_ligand
#    Modification time : Mon Mar 24 22:46:24 2014

@<TRIPOS>MOLECULE
3m6g_ATP_3_ligand
   43    45     1     0     0
SMALL
NO_CHARGES


@<TRIPOS>ATOM
      1 PG        -12.9170  -16.2330  -47.2610 P.3       1 ATP1380     0.0000 
      2 O1G       -12.1410  -16.6020  -48.5030 O.co2     1 ATP1380     0.0000 
      3 O2G       -14.0340  -15.2520  -47.5040 O.co2     1 ATP1380     0.0000 
      4 O3G       -13.2720  -17.4790  -46.4620 O.co2     1 ATP1380     0.0000 
      5 PB        -10.7290  -15.6660  -45.4020 P.3       1 ATP1380     0.0000 
      6 O1B        -9.4600  -14.8740  -45.6660 O.co2     1 ATP1380     0.0000 
      7 O2B       -10.5950  -17.1620  -45.1640 O.co2     1 ATP1380     0.0000 
      8 O3B       -11.9150  -15.2620  -46.4130 O.3       1 ATP1380     0.0000 
      9 PA        -11.1100  -15.4420  -42.5170 P.3       1 ATP1380     0.0000 
     10 O1A       -12.0830  -16.5340  -42.0750 O.co2     1 ATP1380     0.0000 
     11 O2A        -9.6350  -15.6330  -42.2100 O.co2     1 ATP1380     0.0000 
     12 O3A       -11.3300  -15.0030  -44.0580 O.3       1 ATP1380     0.0000 
     13 O5'       -11.5690  -14.0830  -41.7990 O.3       1 ATP1380     0.0000 
     14 C5'       -11.0230  -12.8000  -42.1280 C.3       1 ATP1380     0.0000 
     15 C4'       -12.1370  -11.7800  -41.9510 C.3       1 ATP1380     0.0000 
     16 O4'       -12.6400  -11.9210  -40.6190 O.3       1 ATP1380     0.0000 
     17 C3'       -11.6880  -10.3260  -42.0860 C.3       1 ATP1380     0.0000 
     18 O3'       -12.6980   -9.6160  -42.8050 O.3       1 ATP1380     0.0000 
     19 C2'       -11.6430   -9.8410  -40.6480 C.3       1 ATP1380     0.0000 
     20 O2'       -11.8410   -8.4360  -40.4730 O.3       1 ATP1380     0.0000 
     21 C1'       -12.7670  -10.6480  -40.0100 C.3       1 ATP1380     0.0000 
     22 N9        -12.5780  -10.7500  -38.5610 N.pl3     1 ATP1380     0.0000 
     23 C8        -11.4960  -11.2750  -37.9570 C.2       1 ATP1380     0.0000 
     24 N7        -11.6250  -11.2130  -36.6190 N.2       1 ATP1380     0.0000 
     25 C5        -12.8000  -10.6190  -36.3490 C.ar      1 ATP1380     0.0000 
     26 C6        -13.5370  -10.2330  -35.1270 C.ar      1 ATP1380     0.0000 
     27 N6        -12.9940  -10.4930  -33.9250 N.pl3     1 ATP1380     0.0000 
     28 N1        -14.7410   -9.6200  -35.2550 N.ar      1 ATP1380     0.0000 
     29 C2        -15.2620   -9.3630  -36.4720 C.ar      1 ATP1380     0.0000 
     30 N3        -14.6350   -9.6860  -37.6320 N.ar      1 ATP1380     0.0000 
     31 C4        -13.4250  -10.3050  -37.6350 C.ar      1 ATP1380     0.0000 
     32 H         -10.6839  -12.7576  -43.1585 H         1 ATP1380     0.0000 
     33 H         -10.2050  -12.5280  -41.4680 H         1 ATP1380     0.0000 
     34 H         -12.9152  -11.9720  -42.6622 H         1 ATP1380     0.0000 
     35 H         -10.7450  -10.2928  -42.5062 H         1 ATP1380     0.0000 
     36 H         -10.7232  -10.2003  -40.2125 H         1 ATP1380     0.0000 
     37 H         -13.6868  -10.1870  -40.2603 H         1 ATP1380     0.0000 
     38 H         -10.7212  -11.6506  -38.4268 H         1 ATP1380     0.0000 
     39 H         -13.5515  -10.2552  -33.1296 H         1 ATP1380     0.0000 
     40 H         -12.0811  -10.9010  -33.9335 H         1 ATP1380     0.0000 
     41 H         -16.2091   -8.8846  -36.5299 H         1 ATP1380     0.0000 
     42 H         -12.3285   -9.5040  -43.7275 H         1 ATP1380     0.0000 
     43 H         -11.1906   -8.1697  -39.7616 H         1 ATP1380     0.0000 
@<TRIPOS>BOND
     1    2    1 ar   
     2    3    1 ar   
     3    4    1 ar   
     4    8    1 1    
     5    6    5 ar   
     6    7    5 ar   
     7    8    5 1    
     8   12    5 1    
     9   10    9 ar   
    10   11    9 ar   
    11   12    9 1    
    12   13    9 1    
    13   14   13 1    
    14   15   14 1    
    15   32   14 1    
    16   33   14 1    
    17   16   15 1    
    18   17   15 1    
    19   34   15 1    
    20   21   16 1    
    21   18   17 1    
    22   19   17 1    
    23   35   17 1    
    24   42   18 1    
    25   20   19 1    
    26   21   19 1    
    27   36   19 1    
    28   43   20 1    
    29   22   21 1    
    30   37   21 1    
    31   23   22 1    
    32   31   22 1    
    33   24   23 2    
    34   38   23 1    
    35   25   24 1    
    36   26   25 ar   
    37   31   25 ar   
    38   27   26 1    
    39   28   26 ar   
    40   39   27 1    
    41   40   27 1    
    42   29   28 ar   
    43   30   29 ar   
    44   41   29 1    
    45   31   30 ar   
@<TRIPOS>SUBSTRUCTURE
     1 ATP1380     1 GROUP   
@<TRIPOS>SET

