#    Name: 3e2s_FAD_1_INTS_M
#    Modification time : Tue Mar 25 00:52:03 2014

@<TRIPOS>MOLECULE
3e2s_FAD_1_INTS_M
  129     0    12     0     0
SMALL
NO_CHARGES


@<TRIPOS>ATOM
      1 NZ         -2.9100   47.1385   43.8230 N.4       3 LYC4        0.0000 
      2 NZ         -1.6800   48.5640   43.6960 N.4      11 LYL4        0.0000 
      3 NZ         -4.1400   45.7130   43.9500 N.4       7 LYP4        0.0000 
      4 N          -2.3865   49.4710   43.0240 N.am      2 SEC2        0.0000 
      5 N          -1.6800   48.5640   43.6960 N.am     10 SEL2        0.0000 
      6 N          -3.0930   50.3780   42.3520 N.am      6 SEP2        0.0000 
      7 NZ         -2.7160   46.4280   46.9100 N.4       3 LYC4        0.0000 
      8 NZ         -2.6080   47.3270   45.7590 N.4      11 LYL4        0.0000 
      9 NZ         -2.8240   45.5290   48.0610 N.4       7 LYP4        0.0000 
     10 NZ         -3.3740   46.5200   44.8545 N.4       3 LYC4        0.0000 
     11 N          -2.7160   46.4280   46.9100 N.am      2 SEC2        0.0000 
     12 N          -2.6080   47.3270   45.7590 N.am     10 SEL2        0.0000 
     13 N          -2.8240   45.5290   48.0610 N.am      6 SEP2        0.0000 
     14 N          -3.3740   46.5200   44.8545 N.am      2 SEC2        0.0000 
     15 N          -4.1400   45.7130   43.9500 N.am      6 SEP2        0.0000 
     16 N          -3.9680   47.6355   46.1970 N.am      2 SEC2        0.0000 
     17 N          -5.3280   47.9440   46.6350 N.am      6 SEP2        0.0000 
     18 CA          0.0365   45.5805   45.7825 C.3       4 GLC5        0.0000 
     19 CA          0.5810   46.5670   43.9010 C.3      12 GLL5        0.0000 
     20 CA         -0.5080   44.5940   47.6640 C.3       8 GLP5        0.0000 
     21 CA          4.1605   42.0995   43.7580 C.3       4 GLC5        0.0000 
     22 CA          2.9300   43.7560   43.3950 C.3      12 GLL5        0.0000 
     23 CA          5.3910   40.4430   44.1210 C.3       8 GLP5        0.0000 
     24 CA          2.4310   43.7335   45.5190 C.3       4 GLC5        0.0000 
     25 CA          1.9320   43.7110   47.6430 C.3       8 GLP5        0.0000 
     26 O           4.7885   43.7870   44.6645 O.2       1 ALC1        0.0000 
     27 O           3.6410   43.2370   44.4780 O.2       9 ALL1        0.0000 
     28 O           5.9360   44.3370   44.8510 O.2       5 ALP1        0.0000 
     29 CA         -0.2550   43.4015   42.1305 C.3       4 GLC5        0.0000 
     30 CA          1.7130   43.1700   42.9330 C.3      12 GLL5        0.0000 
     31 CA         -2.2230   43.6330   41.3280 C.3       8 GLP5        0.0000 
     32 CA          1.0135   41.9520   44.4850 C.3       4 GLC5        0.0000 
     33 CA          0.3140   40.7340   46.0370 C.3       8 GLP5        0.0000 
     34 CA          0.5745   38.2480   38.6490 C.3       4 GLC5        0.0000 
     35 CA          0.4740   40.4060   39.1480 C.3      12 GLL5        0.0000 
     36 CA          0.6750   36.0900   38.1500 C.3       8 GLP5        0.0000 
     37 CA         -1.0490   39.1915   38.9350 C.3       4 GLC5        0.0000 
     38 CA         -2.5720   37.9770   38.7220 C.3       8 GLP5        0.0000 
     39 O          -0.1460   39.1470   37.3275 O.2       1 ALC1        0.0000 
     40 O           0.1500   40.4800   37.7200 O.2       9 ALL1        0.0000 
     41 O          -0.4420   37.8140   36.9350 O.2       5 ALP1        0.0000 
     42 CA          0.4845   37.3540   41.8380 C.3       4 GLC5        0.0000 
     43 CA          0.7350   39.1480   41.0930 C.3      12 GLL5        0.0000 
     44 CA          0.2340   35.5600   42.5830 C.3       8 GLP5        0.0000 
     45 CA          0.7050   37.6190   39.6215 C.3       4 GLC5        0.0000 
     46 CA         -0.9185   38.5625   39.9075 C.3       4 GLC5        0.0000 
     47 CA         -0.8920   40.1205   40.9830 C.3       4 GLC5        0.0000 
     48 CA         -2.5190   41.0930   40.8730 C.3       8 GLP5        0.0000 
     49 CA          0.1455   39.5385   43.0255 C.3       4 GLC5        0.0000 
     50 CA         -0.4440   39.9290   44.9580 C.3       8 GLP5        0.0000 
     51 N           0.7935   39.7000   42.9920 N.am      2 SEC2        0.0000 
     52 N           1.0880   40.2600   41.7760 N.am     10 SEL2        0.0000 
     53 N           0.4990   39.1400   44.2080 N.am      6 SEP2        0.0000 
     54 CA          0.3400   40.6890   43.0560 C.3       4 GLC5        0.0000 
     55 CA          1.1240   41.4490   41.1540 C.3      12 GLL5        0.0000 
     56 N          10.0485   42.2050   47.9065 N.am      2 SEC2        0.0000 
     57 N           9.5750   43.5470   47.6450 N.am     10 SEL2        0.0000 
     58 N          10.5220   40.8630   48.1680 N.am      6 SEP2        0.0000 
     59 N           8.8220   43.9050   46.6265 N.am      2 SEC2        0.0000 
     60 N           8.0690   44.2630   45.6080 N.am      6 SEP2        0.0000 
     61 O          11.8340   43.7030   49.5370 O.2       1 ALC1        0.0000 
     62 O          10.6060   44.4120   49.5920 O.2       9 ALL1        0.0000 
     63 O          13.0620   42.9940   49.4820 O.2       5 ALP1        0.0000 
     64 N          12.4145   43.9555   51.9360 N.am      2 SEC2        0.0000 
     65 N          11.6080   45.1480   51.6190 N.am     10 SEL2        0.0000 
     66 N          13.2210   42.7630   52.2530 N.am      6 SEP2        0.0000 
     67 N          10.8960   47.6650   50.8260 N.am      2 SEC2        0.0000 
     68 N           9.6900   47.1520   51.7820 N.am     10 SEL2        0.0000 
     69 N          12.1020   48.1780   49.8700 N.am      6 SEP2        0.0000 
     70 CA         10.0865   49.7710   51.5860 C.3       4 GLC5        0.0000 
     71 CA          8.7160   49.0320   52.9290 C.3      12 GLL5        0.0000 
     72 CA         11.4570   50.5100   50.2430 C.3       8 GLP5        0.0000 
     73 CA          6.1295   51.0585   55.3600 C.3       4 GLC5        0.0000 
     74 CA          7.6560   51.0100   54.1210 C.3      12 GLL5        0.0000 
     75 CA          4.6030   51.1070   56.5990 C.3       8 GLP5        0.0000 
     76 CA          4.8330   52.5215   52.5640 C.3       4 GLC5        0.0000 
     77 CA          5.6710   51.1410   51.9450 C.3      12 GLL5        0.0000 
     78 CA          3.9950   53.9020   53.1830 C.3       8 GLP5        0.0000 
     79 CA          8.8485   48.9110   48.9605 C.3       4 GLC5        0.0000 
     80 CA          6.9820   47.9160   48.8610 C.3      12 GLL5        0.0000 
     81 CA         10.7150   49.9060   49.0600 C.3       8 GLP5        0.0000 
     82 CA          6.1945   45.0375   47.4400 C.3       4 GLC5        0.0000 
     83 CA          6.0390   47.0690   48.1030 C.3      12 GLL5        0.0000 
     84 CA          6.3500   43.0060   46.7770 C.3       8 GLP5        0.0000 
     85 CA          7.7820   46.6570   46.7710 C.3       4 GLC5        0.0000 
     86 CA          9.5250   46.2450   45.4390 C.3       8 GLP5        0.0000 
     87 N           5.6000   44.6450   47.7210 N.am      2 SEC2        0.0000 
     88 N           6.1420   45.8870   48.1130 N.am     10 SEL2        0.0000 
     89 N           5.0580   43.4030   47.3290 N.am      6 SEP2        0.0000 
     90 O           5.5655   50.0250   46.1150 O.2       1 ALC1        0.0000 
     91 O           5.0650   49.2400   47.5040 O.2       9 ALL1        0.0000 
     92 O           6.0660   50.8100   44.7260 O.2       5 ALP1        0.0000 
     93 O           4.5525   50.0385   46.5355 O.2       1 ALC1        0.0000 
     94 O           4.0400   50.8370   45.5670 O.2       5 ALP1        0.0000 
     95 CA          2.9015   45.4520   47.3170 C.3       4 GLC5        0.0000 
     96 CA          3.8710   47.1930   46.9910 C.3      12 GLL5        0.0000 
     97 N           4.5020   44.6470   46.9155 N.am      2 SEC2        0.0000 
     98 N           3.9460   45.8910   46.5020 N.am     10 SEL2        0.0000 
     99 NZ         -1.8450   46.5855   48.1845 N.4       3 LYC4        0.0000 
    100 NZ         -0.8660   47.6420   48.3080 N.4      11 LYL4        0.0000 
    101 N          -1.8450   46.5855   48.1845 N.am      2 SEC2        0.0000 
    102 N          -0.8660   47.6420   48.3080 N.am     10 SEL2        0.0000 
    103 N          -1.3710   48.2360   49.3990 N.am      2 SEC2        0.0000 
    104 N          -1.8760   48.8300   50.4900 N.am      6 SEP2        0.0000 
    105 N           0.0360   50.6045   48.8520 N.am      2 SEC2        0.0000 
    106 N           0.5270   49.8000   47.8670 N.am     10 SEL2        0.0000 
    107 N          -0.4550   51.4090   49.8370 N.am      6 SEP2        0.0000 
    108 CA         -1.0192   45.5385   43.4288 C.3       4 GLC5        0.0000 
    109 CA         -2.9810   45.1330   43.1890 C.3       8 GLP5        0.0000 
    110 CA         -0.8164   41.1505   40.5981 C.3       4 GLC5        0.0000 
    111 CA          0.8230   41.5280   39.8370 C.3      12 GLL5        0.0000 
    112 CA          7.5815   47.0010   52.5055 C.3       4 GLC5        0.0000 
    113 CA          8.7860   48.1240   51.8650 C.3      12 GLL5        0.0000 
    114 CA          6.4120   45.4240   52.6140 C.3       8 GLP5        0.0000 
    115 CA          5.8892   49.4125   53.6238 C.3       4 GLC5        0.0000 
    116 CA          7.7310   50.0260   52.9500 C.3      12 GLL5        0.0000 
    117 CA          4.0850   48.3070   53.7120 C.3       8 GLP5        0.0000 
    118 CA          8.8002   52.0145   53.6437 C.3       4 GLC5        0.0000 
    119 CA          9.9070   53.5110   53.7520 C.3       8 GLP5        0.0000 
    120 CA          8.1049   51.4297   51.9386 C.3       4 GLC5        0.0000 
    121 CA          8.2700   52.5900   50.3470 C.3       8 GLP5        0.0000 
    122 CA          7.2545   51.6107   51.1403 C.3       4 GLC5        0.0000 
    123 CA          6.8887   47.0770   51.7465 C.3       4 GLC5        0.0000 
    124 CA          6.8700   49.2240   50.8800 C.3      12 GLL5        0.0000 
    125 CA          5.3197   49.1174   52.5594 C.3       4 GLC5        0.0000 
    126 CA          7.8178   50.6600   50.6130 C.3       4 GLC5        0.0000 
    127 CA          9.1559   49.3040   50.0929 C.3       4 GLC5        0.0000 
    128 CA          6.1208   46.0992   49.9570 C.3       4 GLC5        0.0000 
    129 CA          5.7310   44.7060   51.4320 C.3       8 GLP5        0.0000 
@<TRIPOS>BOND
@<TRIPOS>SUBSTRUCTURE
     1 ALC1       26 GROUP        1 X    ALC  0     ROOT ALC X 1
     2 SEC2        4 GROUP        1 X    SEC  0     **** SEC X 2
     3 LYC4        1 GROUP        1 X    LYC  0     **** LYC X 4
     4 GLC5       18 GROUP        1 X    GLC  0     **** GLC X 6
     5 ALP1       28 GROUP        1 Y    ALP  0     ROOT ALP Y 8
     6 SEP2        6 GROUP        1 Y    SEP  0     **** SEP Y 9
     7 LYP4        3 GROUP        1 Y    LYP  0     **** LYP Y 11
     8 GLP5       20 GROUP        1 Y    GLP  0     **** GLP Y 13
     9 ALL1       27 GROUP        1 Z    ALL  0     ROOT ALL Z 15
    10 SEL2        5 GROUP        1 Z    SEL  0     **** SEL Z 16
    11 LYL4        2 GROUP        1 Z    LYL  0     **** LYL Z 18
    12 GLL5       19 GROUP        1 Z    GLL  0     **** GLL Z 20
@<TRIPOS>SET

