#    Name: 3e2s_FAD_1_ligand
#    Modification time : Tue Mar 25 00:52:03 2014

@<TRIPOS>MOLECULE
3e2s_FAD_1_ligand
   84    89     1     0     0
SMALL
NO_CHARGES


@<TRIPOS>ATOM
      1 PA         -1.3760   47.7080   45.0750 P.3       1 FAD2001     0.0000 
      2 O1A        -1.6800   48.5640   43.6960 O.co2     1 FAD2001     0.0000 
      3 O2A        -2.6080   47.3270   45.7590 O.co2     1 FAD2001     0.0000 
      4 O5B        -0.5780   46.3560   44.6640 O.3       1 FAD2001     0.0000 
      5 C5B         0.5810   46.5670   43.9010 C.3       1 FAD2001     0.0000 
      6 C4B         1.3040   45.3210   43.4360 C.3       1 FAD2001     0.0000 
      7 O4B         0.7520   44.0130   43.4810 O.3       1 FAD2001     0.0000 
      8 C3B         2.7010   45.1510   43.3010 C.3       1 FAD2001     0.0000 
      9 O3B         3.6250   46.1390   43.6290 O.3       1 FAD2001     0.0000 
     10 C2B         2.9300   43.7560   43.3950 C.3       1 FAD2001     0.0000 
     11 O2B         3.6410   43.2370   44.4780 O.3       1 FAD2001     0.0000 
     12 C1B         1.7130   43.1700   42.9330 C.3       1 FAD2001     0.0000 
     13 N9A         1.4510   42.7390   41.5750 N.pl3     1 FAD2001     0.0000 
     14 C8A         1.3220   43.5850   40.5370 C.2       1 FAD2001     0.0000 
     15 N7A         0.9370   42.8380   39.4450 N.2       1 FAD2001     0.0000 
     16 C5A         0.8230   41.5280   39.8370 C.ar      1 FAD2001     0.0000 
     17 C6A         0.4740   40.4060   39.1480 C.ar      1 FAD2001     0.0000 
     18 N6A         0.1500   40.4800   37.7200 N.pl3     1 FAD2001     0.0000 
     19 N1A         0.4330   39.2350   39.7730 N.ar      1 FAD2001     0.0000 
     20 C2A         0.7350   39.1480   41.0930 C.ar      1 FAD2001     0.0000 
     21 N3A         1.0880   40.2600   41.7760 N.ar      1 FAD2001     0.0000 
     22 C4A         1.1240   41.4490   41.1540 C.ar      1 FAD2001     0.0000 
     23 N1          8.7420   45.5340   48.6430 N.2       1 FAD2001     0.0000 
     24 C2          9.6610   44.5550   48.5900 C.2       1 FAD2001     0.0000 
     25 O2          9.5750   43.5470   47.6450 O.2       1 FAD2001     0.0000 
     26 N3         10.6060   44.4120   49.5920 N.am      1 FAD2001     0.0000 
     27 C4         10.6150   45.2860   50.6520 C.2       1 FAD2001     0.0000 
     28 O4         11.6080   45.1480   51.6190 O.2       1 FAD2001     0.0000 
     29 C4X         9.6800   46.2880   50.7320 C.2       1 FAD2001     0.0000 
     30 N5          9.6900   47.1520   51.7820 N.2       1 FAD2001     0.0000 
     31 C5X         8.7860   48.1240   51.8650 C.ar      1 FAD2001     0.0000 
     32 C6          8.7160   49.0320   52.9290 C.ar      1 FAD2001     0.0000 
     33 C7          7.7310   50.0260   52.9500 C.ar      1 FAD2001     0.0000 
     34 C7M         7.6560   51.0100   54.1210 C.3       1 FAD2001     0.0000 
     35 C8          6.8070   50.1220   51.9220 C.ar      1 FAD2001     0.0000 
     36 C8M         5.6710   51.1410   51.9450 C.3       1 FAD2001     0.0000 
     37 C9          6.8700   49.2240   50.8800 C.ar      1 FAD2001     0.0000 
     38 C9A         7.8610   48.2360   50.8780 C.ar      1 FAD2001     0.0000 
     39 N10         7.8570   47.4080   49.8610 N.pl3     1 FAD2001     0.0000 
     40 C10         8.7540   46.4240   49.7360 C.2       1 FAD2001     0.0000 
     41 C1'         6.9820   47.9160   48.8610 C.3       1 FAD2001     0.0000 
     42 C2'         6.0390   47.0690   48.1030 C.3       1 FAD2001     0.0000 
     43 O2'         6.1420   45.8870   48.1130 O.3       1 FAD2001     0.0000 
     44 C3'         5.1970   47.8820   47.1320 C.3       1 FAD2001     0.0000 
     45 O3'         5.0650   49.2400   47.5040 O.3       1 FAD2001     0.0000 
     46 C4'         3.8710   47.1930   46.9910 C.3       1 FAD2001     0.0000 
     47 O4'         3.9460   45.8910   46.5020 O.3       1 FAD2001     0.0000 
     48 C5'         2.6630   48.0470   46.6370 C.3       1 FAD2001     0.0000 
     49 O5'         1.5290   47.5420   47.2610 O.3       1 FAD2001     0.0000 
     50 P           0.1990   48.4570   47.3870 P.3       1 FAD2001     0.0000 
     51 O1P        -0.8660   47.6420   48.3080 O.co2     1 FAD2001     0.0000 
     52 O2P         0.5270   49.8000   47.8670 O.co2     1 FAD2001     0.0000 
     53 O3P        -0.3700   48.7300   45.8600 O.3       1 FAD2001     0.0000 
     54 H           1.3321   47.1922   44.4627 H         1 FAD2001     0.0000 
     55 H           0.3592   47.1804   42.9817 H         1 FAD2001     0.0000 
     56 H           1.0774   45.4858   42.1239 H         1 FAD2001     0.0000 
     57 H           2.7288   45.2198   42.0023 H         1 FAD2001     0.0000 
     58 H           3.6517   43.5799   42.4266 H         1 FAD2001     0.0000 
     59 H           1.6040   42.1949   43.6081 H         1 FAD2001     0.0000 
     60 H           1.4656   44.5280   40.5370 H         1 FAD2001     0.0000 
     61 H          -0.0420   39.6096   37.2667 H         1 FAD2001     0.0000 
     62 H           0.1475   41.3948   37.3162 H         1 FAD2001     0.0000 
     63 H           0.6944   38.2287   41.5752 H         1 FAD2001     0.0000 
     64 H          11.2985   43.6505   49.5383 H         1 FAD2001     0.0000 
     65 H           9.3934   48.9675   53.7001 H         1 FAD2001     0.0000 
     66 H           6.1989   49.2706   50.1049 H         1 FAD2001     0.0000 
     67 H           7.6061   48.5086   48.0799 H         1 FAD2001     0.0000 
     68 H           6.3631   48.7908   49.3109 H         1 FAD2001     0.0000 
     69 H           5.0828   47.1951   49.0903 H         1 FAD2001     0.0000 
     70 H           5.7002   47.7958   46.1450 H         1 FAD2001     0.0000 
     71 H           3.6281   46.9884   48.2073 H         1 FAD2001     0.0000 
     72 H           2.5755   48.0507   45.5382 H         1 FAD2001     0.0000 
     73 H           2.8912   49.0805   46.9452 H         1 FAD2001     0.0000 
     74 H           8.4993   51.5390   54.2162 H         1 FAD2001     0.0000 
     75 H           6.9098   51.6660   54.0077 H         1 FAD2001     0.0000 
     76 H           7.5044   50.5410   54.9911 H         1 FAD2001     0.0000 
     77 H           6.0145   52.0793   51.9855 H         1 FAD2001     0.0000 
     78 H           5.0958   51.0744   51.1297 H         1 FAD2001     0.0000 
     79 H           5.0734   51.0132   52.7366 H         1 FAD2001     0.0000 
     80 H           4.1691   46.2697   42.8002 H         1 FAD2001     0.0000 
     81 H           4.1843   44.0030   44.8217 H         1 FAD2001     0.0000 
     82 H           7.1247   45.7135   48.1763 H         1 FAD2001     0.0000 
     83 H           4.7035   49.6969   46.6912 H         1 FAD2001     0.0000 
     84 H           3.8798   45.9836   45.5085 H         1 FAD2001     0.0000 
@<TRIPOS>BOND
     1    2    1 ar   
     2    3    1 ar   
     3    4    1 1    
     4   53    1 1    
     5    5    4 1    
     6    6    5 1    
     7   54    5 1    
     8   55    5 1    
     9    7    6 1    
    10    8    6 1    
    11   56    6 1    
    12   12    7 1    
    13    9    8 1    
    14   10    8 1    
    15   57    8 1    
    16   80    9 1    
    17   11   10 1    
    18   12   10 1    
    19   58   10 1    
    20   81   11 1    
    21   13   12 1    
    22   59   12 1    
    23   14   13 1    
    24   22   13 1    
    25   15   14 2    
    26   60   14 1    
    27   16   15 1    
    28   17   16 ar   
    29   22   16 ar   
    30   18   17 1    
    31   19   17 ar   
    32   61   18 1    
    33   62   18 1    
    34   20   19 ar   
    35   21   20 ar   
    36   63   20 1    
    37   22   21 ar   
    38   24   23 1    
    39   40   23 2    
    40   25   24 2    
    41   26   24 am   
    42   27   26 am   
    43   64   26 1    
    44   28   27 2    
    45   29   27 1    
    46   30   29 2    
    47   40   29 1    
    48   31   30 1    
    49   32   31 ar   
    50   38   31 ar   
    51   33   32 ar   
    52   65   32 1    
    53   34   33 1    
    54   35   33 ar   
    55   74   34 1    
    56   75   34 1    
    57   76   34 1    
    58   36   35 1    
    59   37   35 ar   
    60   77   36 1    
    61   78   36 1    
    62   79   36 1    
    63   38   37 ar   
    64   66   37 1    
    65   39   38 1    
    66   40   39 1    
    67   41   39 1    
    68   42   41 1    
    69   67   41 1    
    70   68   41 1    
    71   43   42 1    
    72   44   42 1    
    73   69   42 1    
    74   82   43 1    
    75   45   44 1    
    76   46   44 1    
    77   70   44 1    
    78   83   45 1    
    79   47   46 1    
    80   48   46 1    
    81   71   46 1    
    82   84   47 1    
    83   49   48 1    
    84   72   48 1    
    85   73   48 1    
    86   50   49 1    
    87   51   50 ar   
    88   52   50 ar   
    89   53   50 1    
@<TRIPOS>SUBSTRUCTURE
     1 FAD2001     1 GROUP   
@<TRIPOS>SET

