#    Name: 4f86_SFG_8_INTS_M
#    Modification time : Mon Mar 24 19:03:48 2014

@<TRIPOS>MOLECULE
4f86_SFG_8_INTS_M
   84     0    12     0     0
SMALL
NO_CHARGES


@<TRIPOS>ATOM
      1 OD1        -9.5425   39.5090   96.7075 O.co2     3 ASC3        0.0000 
      2 OD1        -7.8830   39.4430   97.7200 O.co2    11 ASL3        0.0000 
      3 OD1       -11.2020   39.5750   95.6950 O.co2     7 ASP3        0.0000 
      4 O          -7.0710   38.7900   98.5070 O.2       1 ALC1        0.0000 
      5 O          -7.8830   39.4430   97.7200 O.2       9 ALL1        0.0000 
      6 O          -6.2590   38.1370   99.2940 O.2       5 ALP1        0.0000 
      7 CA         -9.8480   41.4055   97.7720 C.3       4 GLC5        0.0000 
      8 CA         -7.9620   40.7600   98.3680 C.3      12 GLL5        0.0000 
      9 CA        -11.7340   42.0510   97.1760 C.3       8 GLP5        0.0000 
     10 CA         -6.9740   39.1915   97.4710 C.3       4 GLC5        0.0000 
     11 CA         -5.9860   37.6230   96.5740 C.3       8 GLP5        0.0000 
     12 N          -4.5980   41.2505   96.9190 N.am      2 SEC2        0.0000 
     13 N          -5.9620   41.1360   97.1440 N.am     10 SEL2        0.0000 
     14 N          -3.2340   41.3650   96.6940 N.am      6 SEP2        0.0000 
     15 CA         -8.7695   38.9030  100.7855 C.3       4 GLC5        0.0000 
     16 CA         -7.7940   40.6000   99.8810 C.3      12 GLL5        0.0000 
     17 CA         -9.7450   37.2060  101.6900 C.3       8 GLP5        0.0000 
     18 CA         -9.2320   43.3405  100.0295 C.3       4 GLC5        0.0000 
     19 CA         -8.0860   41.9110  100.6130 C.3      12 GLL5        0.0000 
     20 CA        -10.3780   44.7700   99.4460 C.3       8 GLP5        0.0000 
     21 CA         -7.4565   42.5980  103.8515 C.3       4 GLC5        0.0000 
     22 CA         -7.9020   41.7690  102.1260 C.3      12 GLL5        0.0000 
     23 CA         -7.0110   43.4270  105.5770 C.3       8 GLP5        0.0000 
     24 CA         -8.3825   41.6485  104.4215 C.3       4 GLC5        0.0000 
     25 CA         -8.7940   40.6500  102.6700 C.3      12 GLL5        0.0000 
     26 CA         -7.9710   42.6470  106.1730 C.3       8 GLP5        0.0000 
     27 CA         -8.7090   39.7820  104.6335 C.3       4 GLC5        0.0000 
     28 CA         -8.6240   38.9140  106.5970 C.3       8 GLP5        0.0000 
     29 CA        -10.0020   42.7225  104.6665 C.3       4 GLC5        0.0000 
     30 CA        -10.7790   42.2240  102.9390 C.3      12 GLL5        0.0000 
     31 CA         -9.2250   43.2210  106.3940 C.3       8 GLP5        0.0000 
     32 CA        -10.5785   43.4970  101.1925 C.3       4 GLC5        0.0000 
     33 N         -11.3040   43.3095  100.4325 N.am      2 SEC2        0.0000 
     34 N         -11.4760   42.9750  101.9410 N.am     10 SEL2        0.0000 
     35 N         -11.1320   43.6440   98.9240 N.am      6 SEP2        0.0000 
     36 N         -12.9775   43.5455  101.8860 N.am      2 SEC2        0.0000 
     37 N         -14.4790   44.1160  101.8310 N.am      6 SEP2        0.0000 
     38 N         -11.7960   44.2985  102.2085 N.am      2 SEC2        0.0000 
     39 N         -12.1160   45.6220  102.4760 N.am      6 SEP2        0.0000 
     40 CA        -11.5575   42.6870  105.4755 C.3       4 GLC5        0.0000 
     41 CA        -11.7720   41.7290  103.9900 C.3      12 GLL5        0.0000 
     42 CA        -11.3430   43.6450  106.9610 C.3       8 GLP5        0.0000 
     43 N         -12.4700   44.1545  103.3040 N.am      2 SEC2        0.0000 
     44 N         -12.8240   42.6870  104.1320 N.am     10 SEL2        0.0000 
     45 O         -13.6515   43.4015  102.9815 O.2       1 ALC1        0.0000 
     46 O         -12.8240   42.6870  104.1320 O.2       9 ALL1        0.0000 
     47 O         -14.4790   44.1160  101.8310 O.2       5 ALP1        0.0000 
     48 CA        -12.5260   40.0725  101.5870 C.3       4 GLC5        0.0000 
     49 CA        -12.3030   40.5060  103.2440 C.3      12 GLL5        0.0000 
     50 CA        -12.7490   39.6390   99.9300 C.3       8 GLP5        0.0000 
     51 CA        -12.9530   38.5265  102.7260 C.3       4 GLC5        0.0000 
     52 CA        -13.6030   36.5470  102.2080 C.3       8 GLP5        0.0000 
     53 CA        -11.0240   38.8560  102.4670 C.3       4 GLC5        0.0000 
     54 CA        -13.1010   37.4455  106.1265 C.3       4 GLC5        0.0000 
     55 CA        -14.6950   38.3660  104.9370 C.3      12 GLL5        0.0000 
     56 CA        -11.5070   36.5250  107.3160 C.3       8 GLP5        0.0000 
     57 O         -17.7360   36.6865  105.5230 O.2       1 ALC1        0.0000 
     58 O         -16.3280   36.9560  105.8960 O.2       9 ALL1        0.0000 
     59 O         -19.1440   36.4170  105.1500 O.2       5 ALP1        0.0000 
     60 N         -17.7605   37.4135  102.8190 N.am      2 SEC2        0.0000 
     61 N         -16.7600   38.0040  103.8720 N.am     10 SEL2        0.0000 
     62 N         -18.7610   36.8230  101.7660 N.am      6 SEP2        0.0000 
     63 CA        -16.2725   40.7370  101.8505 C.3       4 GLC5        0.0000 
     64 CA        -16.3870   38.8000  102.8850 C.3      12 GLL5        0.0000 
     65 CA        -16.1580   42.6740  100.8160 C.3       8 GLP5        0.0000 
     66 CA        -17.3075   39.6370  103.9325 C.3       4 GLC5        0.0000 
     67 CA        -18.2280   40.4740  104.9800 C.3       8 GLP5        0.0000 
     68 CA        -18.3665   38.4555  102.9820 C.3       4 GLC5        0.0000 
     69 CA        -20.3460   38.1110  103.0790 C.3       8 GLP5        0.0000 
     70 CA        -16.2530   37.0890  102.4305 C.3       4 GLC5        0.0000 
     71 CA        -16.1190   35.3780  101.9760 C.3       8 GLP5        0.0000 
     72 CA        -13.5440   39.4170  101.9060 C.3       4 GLC5        0.0000 
     73 CA        -14.3390   39.1950  103.8820 C.3      12 GLL5        0.0000 
     74 CA         -6.6925   43.2205  101.1928 C.3       4 GLC5        0.0000 
     75 CA         -5.3910   44.6010  101.0160 C.3       8 GLP5        0.0000 
     76 CA         -9.6363   38.9955  102.0940 C.3       4 GLC5        0.0000 
     77 CA        -11.6345   40.6055  101.2812 C.3       4 GLC5        0.0000 
     78 CA        -10.2610   40.9200  102.3260 C.3      12 GLL5        0.0000 
     79 CA        -15.1348   36.0528  105.3912 C.3       4 GLC5        0.0000 
     80 CA        -14.9490   34.0410  105.8590 C.3       8 GLP5        0.0000 
     81 CA        -15.8204   39.5314  105.7229 C.3       4 GLC5        0.0000 
     82 CA        -16.8110   40.4330  107.0430 C.3       8 GLP5        0.0000 
     83 CA        -14.2164   37.5884  103.3054 C.3       4 GLC5        0.0000 
     84 CA        -15.9460   37.7630  104.9100 C.3      12 GLL5        0.0000 
@<TRIPOS>BOND
@<TRIPOS>SUBSTRUCTURE
     1 ALC1        4 GROUP        1 X    ALC  0     ROOT ALC X 1
     2 SEC2       12 GROUP        1 X    SEC  0     **** SEC X 2
     3 ASC3        1 GROUP        1 X    ASC  0     **** ASC X 3
     4 GLC5        7 GROUP        1 X    GLC  0     **** GLC X 6
     5 ALP1        6 GROUP        1 Y    ALP  0     ROOT ALP Y 8
     6 SEP2       14 GROUP        1 Y    SEP  0     **** SEP Y 9
     7 ASP3        3 GROUP        1 Y    ASP  0     **** ASP Y 10
     8 GLP5        9 GROUP        1 Y    GLP  0     **** GLP Y 13
     9 ALL1        5 GROUP        1 Z    ALL  0     ROOT ALL Z 15
    10 SEL2       13 GROUP        1 Z    SEL  0     **** SEL Z 16
    11 ASL3        2 GROUP        1 Z    ASL  0     **** ASL Z 17
    12 GLL5        8 GROUP        1 Z    GLL  0     **** GLL Z 20
@<TRIPOS>SET

