#    Name: 4f86_SFG_8_ligand
#    Modification time : Mon Mar 24 19:03:48 2014

@<TRIPOS>MOLECULE
4f86_SFG_8_ligand
   48    50     1     0     0
SMALL
NO_CHARGES


@<TRIPOS>ATOM
      1 N          -7.8830   39.4430   97.7200 N.4       1 SFG501      0.0000 
      2 CA         -7.9620   40.7600   98.3680 C.3       1 SFG501      0.0000 
      3 C          -6.8700   41.6760   97.8110 C.2       1 SFG501      0.0000 
      4 O          -6.9700   42.8970   98.0600 O.co2     1 SFG501      0.0000 
      5 OXT        -5.9620   41.1360   97.1440 O.co2     1 SFG501      0.0000 
      6 CB         -7.7940   40.6000   99.8810 C.3       1 SFG501      0.0000 
      7 CG         -8.0860   41.9110  100.6130 C.3       1 SFG501      0.0000 
      8 CD         -7.9020   41.7690  102.1260 C.3       1 SFG501      0.0000 
      9 NE         -6.4960   41.4590  102.4240 N.3       1 SFG501      0.0000 
     10 C5'        -8.7940   40.6500  102.6700 C.3       1 SFG501      0.0000 
     11 C4'       -10.2610   40.9200  102.3260 C.3       1 SFG501      0.0000 
     12 O4'       -11.0750   39.8660  102.8700 O.3       1 SFG501      0.0000 
     13 C3'       -10.7790   42.2240  102.9390 C.3       1 SFG501      0.0000 
     14 O3'       -11.4760   42.9750  101.9410 O.3       1 SFG501      0.0000 
     15 C2'       -11.7720   41.7290  103.9900 C.3       1 SFG501      0.0000 
     16 O2'       -12.8240   42.6870  104.1320 O.3       1 SFG501      0.0000 
     17 C1'       -12.3030   40.5060  103.2440 C.3       1 SFG501      0.0000 
     18 N9        -13.1060   39.6280  104.1260 N.pl3     1 SFG501      0.0000 
     19 C8        -12.7060   39.1040  105.2830 C.2       1 SFG501      0.0000 
     20 N7        -13.6690   38.3320  105.7820 N.2       1 SFG501      0.0000 
     21 C5        -14.6950   38.3660  104.9370 C.ar      1 SFG501      0.0000 
     22 C6        -15.9460   37.7630  104.9100 C.ar      1 SFG501      0.0000 
     23 N6        -16.3280   36.9560  105.8960 N.pl3     1 SFG501      0.0000 
     24 N1        -16.7600   38.0040  103.8720 N.ar      1 SFG501      0.0000 
     25 C2        -16.3870   38.8000  102.8850 C.ar      1 SFG501      0.0000 
     26 N3        -15.2050   39.3900  102.8780 N.ar      1 SFG501      0.0000 
     27 C4        -14.3390   39.1950  103.8820 C.ar      1 SFG501      0.0000 
     28 H          -8.9187   41.2135   98.1771 H         1 SFG501      0.0000 
     29 H          -6.7720   40.2884  100.0969 H         1 SFG501      0.0000 
     30 H          -8.4778   39.8298  100.2378 H         1 SFG501      0.0000 
     31 H          -9.1135   42.2170  100.4046 H         1 SFG501      0.0000 
     32 H          -7.4127   42.6867  100.2419 H         1 SFG501      0.0000 
     33 H          -8.1872   42.6928  102.5950 H         1 SFG501      0.0000 
     34 H          -8.6829   40.5956  103.7495 H         1 SFG501      0.0000 
     35 H          -8.4907   39.7039  102.2303 H         1 SFG501      0.0000 
     36 H         -10.3733   40.9733  101.2634 H         1 SFG501      0.0000 
     37 H          -9.9999   42.7219  103.4033 H         1 SFG501      0.0000 
     38 H         -11.2827   41.4440  104.8289 H         1 SFG501      0.0000 
     39 H         -12.8336   40.8345  102.4008 H         1 SFG501      0.0000 
     40 H         -11.8345   39.2627  105.7034 H         1 SFG501      0.0000 
     41 H         -17.2365   36.5484  105.8040 H         1 SFG501      0.0000 
     42 H         -15.6722   36.8297  106.6403 H         1 SFG501      0.0000 
     43 H         -17.0553   38.9696  102.0764 H         1 SFG501      0.0000 
     44 H          -7.2815   38.8191   98.2190 H         1 SFG501      0.0000 
     45 H          -8.7791   39.0030   97.6627 H         1 SFG501      0.0000 
     46 H          -7.5284   39.5087   96.7873 H         1 SFG501      0.0000 
     47 H         -11.1803   42.5839  101.0694 H         1 SFG501      0.0000 
     48 H         -12.7807   43.2437  103.3024 H         1 SFG501      0.0000 
@<TRIPOS>BOND
     1    2    1 1    
     2   44    1 1    
     3   45    1 1    
     4   46    1 1    
     5    3    2 1    
     6    6    2 1    
     7   28    2 1    
     8    4    3 ar   
     9    5    3 ar   
    10    7    6 1    
    11   29    6 1    
    12   30    6 1    
    13    8    7 1    
    14   31    7 1    
    15   32    7 1    
    16    9    8 1    
    17   10    8 1    
    18   33    8 1    
    19   11   10 1    
    20   34   10 1    
    21   35   10 1    
    22   12   11 1    
    23   13   11 1    
    24   36   11 1    
    25   17   12 1    
    26   14   13 1    
    27   15   13 1    
    28   37   13 1    
    29   47   14 1    
    30   16   15 1    
    31   17   15 1    
    32   38   15 1    
    33   48   16 1    
    34   18   17 1    
    35   39   17 1    
    36   19   18 1    
    37   27   18 1    
    38   20   19 2    
    39   40   19 1    
    40   21   20 1    
    41   22   21 ar   
    42   27   21 ar   
    43   23   22 1    
    44   24   22 ar   
    45   41   23 1    
    46   42   23 1    
    47   25   24 ar   
    48   26   25 ar   
    49   43   25 1    
    50   27   26 ar   
@<TRIPOS>SUBSTRUCTURE
     1 SFG501      1 GROUP   
@<TRIPOS>SET

