#    Name: 4k88_HFG_1_INTS_M
#    Modification time : Tue Mar 25 07:23:37 2014

@<TRIPOS>MOLECULE
4k88_HFG_1_INTS_M
   59     0     9     0     0
SMALL
NO_CHARGES


@<TRIPOS>ATOM
      1 N         -28.7540   12.8745   -9.8080 N.am      1 SEC2        0.0000 
      2 N         -29.2600   14.3080  -10.1720 N.am      7 SEL2        0.0000 
      3 N         -28.2480   11.4410   -9.4440 N.am      4 SEP2        0.0000 
      4 CA        -28.2915   17.9530  -11.5295 C.3       3 GLC5        0.0000 
      5 CA        -29.0460   16.3380  -11.4760 C.3       9 GLL5        0.0000 
      6 CA        -27.5370   19.5680  -11.5830 C.3       6 GLP5        0.0000 
      7 CA        -29.5980   18.1695  -11.9050 C.3       3 GLC5        0.0000 
      8 CA        -30.4610   16.1350  -12.0270 C.3       9 GLL5        0.0000 
      9 CA        -28.7350   20.2040  -11.7830 C.3       6 GLP5        0.0000 
     10 OD1       -29.4340   15.2775  -13.9790 O.co2     2 ASC3        0.0000 
     11 OD1       -30.6190   14.7700  -12.5510 O.co2     8 ASL3        0.0000 
     12 OD1       -28.2490   15.7850  -15.4070 O.co2     5 ASP3        0.0000 
     13 OD1       -30.2350   15.9850  -13.7210 O.co2     2 ASC3        0.0000 
     14 OD1       -29.8510   17.2000  -14.8910 O.co2     5 ASP3        0.0000 
     15 CA        -34.6430   13.9265  -11.1190 C.3       3 GLC5        0.0000 
     16 CA        -33.0080   14.8030  -11.9770 C.3       9 GLL5        0.0000 
     17 CA        -36.2780   13.0500  -10.2610 C.3       6 GLP5        0.0000 
     18 CA        -33.4000   17.3365  -13.0125 C.3       3 GLC5        0.0000 
     19 CA        -32.8390   16.2110  -11.4670 C.3       9 GLL5        0.0000 
     20 CA        -33.9610   18.4620  -14.5580 C.3       6 GLP5        0.0000 
     21 CA        -27.3405   17.7430   -9.8155 C.3       3 GLC5        0.0000 
     22 CA        -27.7040   15.9480   -9.3000 C.3       9 GLL5        0.0000 
     23 CA        -26.9770   19.5380  -10.3310 C.3       6 GLP5        0.0000 
     24 CA        -20.1550    9.9955   -8.7580 C.3       3 GLC5        0.0000 
     25 CA        -21.1850   10.9880  -10.0820 C.3       9 GLL5        0.0000 
     26 CA        -19.1250    9.0030   -7.4340 C.3       6 GLP5        0.0000 
     27 CA        -20.3190   10.4290  -11.4360 C.3       3 GLC5        0.0000 
     28 CA        -19.4530    9.8700  -12.7900 C.3       6 GLP5        0.0000 
     29 CA        -22.5400   10.3580  -11.3250 C.3       3 GLC5        0.0000 
     30 CA        -23.8950    9.7280  -12.5680 C.3       6 GLP5        0.0000 
     31 CA        -21.0380   13.5035  -10.4345 C.3       3 GLC5        0.0000 
     32 CA        -21.5600   13.0710  -12.5480 C.3       9 GLL5        0.0000 
     33 CA        -20.5160   13.9360   -8.3210 C.3       6 GLP5        0.0000 
     34 CA        -20.5065   11.4705  -12.6690 C.3       3 GLC5        0.0000 
     35 CA        -22.4740   11.7630  -13.1545 C.3       3 GLC5        0.0000 
     36 CA        -23.3880   10.4550  -13.7610 C.3       6 GLP5        0.0000 
     37 CA        -31.7455   12.9177  -12.2568 C.3       3 GLC5        0.0000 
     38 CA        -31.9800   14.5840  -13.0700 C.3       9 GLL5        0.0000 
     39 CA        -30.9970   11.1420  -11.9900 C.3       6 GLP5        0.0000 
     40 CA        -33.3710   13.1778  -13.6423 C.3       3 GLC5        0.0000 
     41 CA        -34.2480   11.6620  -14.7610 C.3       6 GLP5        0.0000 
     42 CA        -34.9252   16.0105  -11.6895 C.3       3 GLC5        0.0000 
     43 CA        -36.9270   16.5140  -11.6570 C.3       6 GLP5        0.0000 
     44 CA        -32.8572   17.6807  -10.3902 C.3       3 GLC5        0.0000 
     45 CA        -33.5740   19.0670   -9.5870 C.3       6 GLP5        0.0000 
     46 CA        -25.2732   13.7073  -12.4842 C.3       3 GLC5        0.0000 
     47 CA        -24.6400   14.0700  -10.2410 C.3       9 GLL5        0.0000 
     48 CA        -26.3620   13.3660  -14.2050 C.3       6 GLP5        0.0000 
     49 CA        -21.8618   13.7523   -9.7952 C.3       3 GLC5        0.0000 
     50 CA        -23.7290   14.0270  -11.2860 C.3       9 GLL5        0.0000 
     51 CA        -23.2978   12.0117  -12.5152 C.3       3 GLC5        0.0000 
     52 CA        -22.6860   13.1100  -11.2530 C.3       9 GLL5        0.0000 
     53 CA        -22.2580   13.3415   -8.7352 C.3       3 GLC5        0.0000 
     54 CA        -23.4840   12.2850   -9.1340 C.3       9 GLL5        0.0000 
     55 CA        -24.8835   10.9150   -8.6427 C.3       3 GLC5        0.0000 
     56 CA        -25.7670    9.0830   -8.1360 C.3       6 GLP5        0.0000 
     57 CA        -23.4605   10.9940  -11.1115 C.3       3 GLC5        0.0000 
     58 CA        -21.1962   12.7737   -9.2250 C.3       3 GLC5        0.0000 
     59 CA        -22.5680   12.2350  -10.1760 C.3       9 GLL5        0.0000 
@<TRIPOS>BOND
@<TRIPOS>SUBSTRUCTURE
     1 SEC2        1 GROUP        1 X    SEC  0     ROOT SEC X 2
     2 ASC3       10 GROUP        1 X    ASC  0     **** ASC X 3
     3 GLC5        4 GROUP        1 X    GLC  0     **** GLC X 6
     4 SEP2        3 GROUP        1 Y    SEP  0     ROOT SEP Y 9
     5 ASP3       12 GROUP        1 Y    ASP  0     **** ASP Y 10
     6 GLP5        6 GROUP        1 Y    GLP  0     **** GLP Y 13
     7 SEL2        2 GROUP        1 Z    SEL  0     ROOT SEL Z 16
     8 ASL3       11 GROUP        1 Z    ASL  0     **** ASL Z 17
     9 GLL5        5 GROUP        1 Z    GLL  0     **** GLL Z 20
@<TRIPOS>SET

