#    Name: 4k88_HFG_1_ligand
#    Modification time : Tue Mar 25 07:23:37 2014

@<TRIPOS>MOLECULE
4k88_HFG_1_ligand
   40    42     1     0     0
SMALL
NO_CHARGES


@<TRIPOS>ATOM
      1 O4'       -29.2600   14.3080  -10.1720 O.2       1 HFG602      0.0000 
      2 C21       -28.7380   15.4160  -10.2990 C.2       1 HFG602      0.0000 
      3 C3'       -29.0460   16.3380  -11.4760 C.3       1 HFG602      0.0000 
      4 C2'       -30.4610   16.1350  -12.0270 C.3       1 HFG602      0.0000 
      5 N1'       -30.6190   14.7700  -12.5510 N.4       1 HFG602      0.0000 
      6 C6'       -31.9800   14.5840  -13.0700 C.3       1 HFG602      0.0000 
      7 C5'       -33.0080   14.8030  -11.9770 C.3       1 HFG602      0.0000 
      8 C4'       -32.8390   16.2110  -11.4670 C.3       1 HFG602      0.0000 
      9 C39       -31.4420   16.3780  -10.9200 C.3       1 HFG602      0.0000 
     10 O7'       -31.3050   17.7160  -10.4600 O.3       1 HFG602      0.0000 
     11 C1'       -27.7040   15.9480   -9.3000 C.3       1 HFG602      0.0000 
     12 N3        -26.5850   14.9900   -9.2600 N.am      1 HFG602      0.0000 
     13 C4        -25.6950   14.9620  -10.2550 C.2       1 HFG602      0.0000 
     14 O11       -25.7810   15.7920  -11.3240 O.2       1 HFG602      0.0000 
     15 C10       -24.6400   14.0700  -10.2410 C.ar      1 HFG602      0.0000 
     16 C5        -23.7290   14.0270  -11.2860 C.ar      1 HFG602      0.0000 
     17 C2        -26.4560   14.1170   -8.1790 C.2       1 HFG602      0.0000 
     18 N1        -25.4560   13.2550   -8.1320 N.2       1 HFG602      0.0000 
     19 C9        -24.5160   13.2090   -9.1650 C.ar      1 HFG602      0.0000 
     20 C8        -23.4840   12.2850   -9.1340 C.ar      1 HFG602      0.0000 
     21 C7        -22.5680   12.2350  -10.1760 C.ar      1 HFG602      0.0000 
     22 BR1       -21.1850   10.9880  -10.0820 Br        1 HFG602      0.0000 
     23 C6        -22.6860   13.1100  -11.2530 C.ar      1 HFG602      0.0000 
     24 CL1       -21.5600   13.0710  -12.5480 Cl        1 HFG602      0.0000 
     25 H         -28.3219   16.1529  -12.2774 H         1 HFG602      0.0000 
     26 H         -28.9347   17.3801  -11.1557 H         1 HFG602      0.0000 
     27 H         -30.6239   16.8593  -12.8056 H         1 HFG602      0.0000 
     28 H         -32.1040   13.5697  -13.4682 H         1 HFG602      0.0000 
     29 H         -32.1803   15.2903  -13.8847 H         1 HFG602      0.0000 
     30 H         -32.8380   14.0998  -11.1764 H         1 HFG602      0.0000 
     31 H         -33.9993   14.6767  -12.3842 H         1 HFG602      0.0000 
     32 H         -33.5626   16.4033  -10.6797 H         1 HFG602      0.0000 
     33 H         -32.9974   16.9149  -12.2793 H         1 HFG602      0.0000 
     34 H         -31.2871   15.6695  -10.1429 H         1 HFG602      0.0000 
     35 H         -28.1749   16.0336   -8.3301 H         1 HFG602      0.0000 
     36 H         -27.3693   16.9201   -9.6359 H         1 HFG602      0.0000 
     37 H         -23.8243   14.6700  -12.0813 H         1 HFG602      0.0000 
     38 H         -27.1695   14.1713   -7.4213 H         1 HFG602      0.0000 
     39 H         -23.3956   11.6362   -8.3403 H         1 HFG602      0.0000 
     40 H         -31.7895   18.2725  -11.1350 H         1 HFG602      0.0000 
@<TRIPOS>BOND
     1    2    1 2    
     2    3    2 1    
     3   11    2 1    
     4    4    3 1    
     5   25    3 1    
     6   26    3 1    
     7    5    4 1    
     8    9    4 1    
     9   27    4 1    
    10    6    5 1    
    11    7    6 1    
    12   28    6 1    
    13   29    6 1    
    14    8    7 1    
    15   30    7 1    
    16   31    7 1    
    17    9    8 1    
    18   32    8 1    
    19   33    8 1    
    20   10    9 1    
    21   34    9 1    
    22   40   10 1    
    23   12   11 1    
    24   35   11 1    
    25   36   11 1    
    26   13   12 am   
    27   17   12 1    
    28   14   13 2    
    29   15   13 1    
    30   16   15 ar   
    31   19   15 ar   
    32   23   16 ar   
    33   37   16 1    
    34   18   17 2    
    35   38   17 1    
    36   19   18 1    
    37   20   19 ar   
    38   21   20 ar   
    39   39   20 1    
    40   22   21 1    
    41   23   21 ar   
    42   24   23 1    
@<TRIPOS>SUBSTRUCTURE
     1 HFG602      1 GROUP   
@<TRIPOS>SET

