#    Name: 3h7u_NAP_1_INTS_M
#    Modification time : Tue Mar 25 13:43:40 2014

@<TRIPOS>MOLECULE
3h7u_NAP_1_INTS_M
  121     0    12     0     0
SMALL
NO_CHARGES


@<TRIPOS>ATOM
      1 N           0.2310    5.9755   20.2290 N.am      2 SEC2        0.0000 
      2 N           1.1430    6.3360   21.2510 N.am     10 SEL2        0.0000 
      3 N          -0.6810    5.6150   19.2070 N.am      6 SEP2        0.0000 
      4 N           1.1620    7.8085   21.0845 N.am      2 SEC2        0.0000 
      5 N           1.1810    9.2810   20.9180 N.am      6 SEP2        0.0000 
      6 N           1.5915    3.4090   23.9380 N.am      2 SEC2        0.0000 
      7 N           1.5890    4.4930   22.9850 N.am     10 SEL2        0.0000 
      8 N           1.5940    2.3250   24.8910 N.am      6 SEP2        0.0000 
      9 CA         -1.0010    5.7050   24.0055 C.3       4 GLC5        0.0000 
     10 CA          0.7610    6.6370   25.0290 C.3      12 GLL5        0.0000 
     11 CA         -2.7630    4.7730   22.9820 C.3       8 GLP5        0.0000 
     12 CA          1.3155    8.1795   23.5850 C.3       4 GLC5        0.0000 
     13 CA          1.8700    9.7220   22.1410 C.3       8 GLP5        0.0000 
     14 CA          1.7920    5.9045   26.6440 C.3       4 GLC5        0.0000 
     15 CA          2.8230    5.1720   28.2590 C.3       8 GLP5        0.0000 
     16 CA          0.4945    9.9795   27.1100 C.3       4 GLC5        0.0000 
     17 CA          0.0510    7.8090   27.1870 C.3      12 GLL5        0.0000 
     18 CA          0.9380   12.1500   27.0330 C.3       8 GLP5        0.0000 
     19 CA         -2.4750    5.9995   24.8350 C.3       4 GLC5        0.0000 
     20 CA         -2.1870    7.2260   26.6880 C.3      12 GLL5        0.0000 
     21 CA         -2.1790    8.6665   25.2310 C.3       4 GLC5        0.0000 
     22 CA         -2.1710   10.1070   23.7740 C.3       8 GLP5        0.0000 
     23 N          -3.7110    2.6490   25.8555 N.am      2 SEC2        0.0000 
     24 N          -3.9250    4.0720   26.2000 N.am     10 SEL2        0.0000 
     25 N          -3.4970    1.2260   25.5110 N.am      6 SEP2        0.0000 
     26 O          -8.2900    3.3320   25.3670 O.2       1 ALC1        0.0000 
     27 O          -6.8380    3.6050   25.6060 O.2       9 ALL1        0.0000 
     28 O          -9.7420    3.0590   25.1280 O.2       5 ALP1        0.0000 
     29 O          -6.1990    2.4495   25.0880 O.2       1 ALC1        0.0000 
     30 O          -5.5600    1.2940   24.5700 O.2       5 ALP1        0.0000 
     31 CA         -6.1280    7.8030   23.8810 C.3       4 GLC5        0.0000 
     32 CA         -6.5360    7.1690   25.8740 C.3      12 GLL5        0.0000 
     33 CA         -5.7200    8.4370   21.8880 C.3       8 GLP5        0.0000 
     34 CA         -6.3565    6.2035   27.5975 C.3       4 GLC5        0.0000 
     35 CA         -6.1770    5.2380   29.3210 C.3       8 GLP5        0.0000 
     36 N           5.3115    7.5010   21.1305 N.am      2 SEC2        0.0000 
     37 N           5.2110    7.4310   22.5640 N.am     10 SEL2        0.0000 
     38 N           5.4120    7.5710   19.6970 N.am      6 SEP2        0.0000 
     39 N           4.6800    8.6420   22.8045 N.am      2 SEC2        0.0000 
     40 N           4.1490    9.8530   23.0450 N.am      6 SEP2        0.0000 
     41 N           4.6900    4.9660   20.6435 N.am      2 SEC2        0.0000 
     42 N           4.7680    5.0560   22.1380 N.am     10 SEL2        0.0000 
     43 N           4.6120    4.8760   19.1490 N.am      6 SEP2        0.0000 
     44 CA          4.0890    4.8320   20.9015 C.3       4 GLC5        0.0000 
     45 CA          4.5580    3.7140   22.5310 C.3      12 GLL5        0.0000 
     46 CA          3.6200    5.9500   19.2720 C.3       8 GLP5        0.0000 
     47 CA          3.3245    3.5430   21.0080 C.3       4 GLC5        0.0000 
     48 CA          2.0910    3.3720   19.4850 C.3       8 GLP5        0.0000 
     49 N           7.1920    3.6250   26.3775 N.am      2 SEC2        0.0000 
     50 N           6.2550    3.6030   25.2280 N.am     10 SEL2        0.0000 
     51 N           8.1290    3.6470   27.5270 N.am      6 SEP2        0.0000 
     52 CA          9.6880    2.8080   24.7210 C.3       4 GLC5        0.0000 
     53 CA          8.0500    2.9610   23.6360 C.3      12 GLL5        0.0000 
     54 CA         11.3260    2.6550   25.8060 C.3       8 GLP5        0.0000 
     55 N           7.4010    1.4170   25.7250 N.am      2 SEC2        0.0000 
     56 N           7.9600    1.6500   24.2110 N.am     10 SEL2        0.0000 
     57 N           6.8420    1.1840   27.2390 N.am      6 SEP2        0.0000 
     58 O           8.7540    0.7655   23.5945 O.2       1 ALC1        0.0000 
     59 O           7.9600    1.6500   24.2110 O.2       9 ALL1        0.0000 
     60 O           9.5480   -0.1190   22.9780 O.2       5 ALP1        0.0000 
     61 CA          7.6740    3.1895   20.3125 C.3       4 GLC5        0.0000 
     62 CA          8.0560    2.9180   22.1010 C.3      12 GLL5        0.0000 
     63 CA          7.2920    3.4610   18.5240 C.3       8 GLP5        0.0000 
     64 CA          7.5540    1.1070   20.8810 C.3       4 GLC5        0.0000 
     65 CA          7.0520   -0.7040   19.6610 C.3       8 GLP5        0.0000 
     66 N          13.7355    5.0355   20.5590 N.am      2 SEC2        0.0000 
     67 N          12.6920    5.6790   19.3150 N.am     10 SEL2        0.0000 
     68 N          14.7790    4.3920   21.8030 N.am      6 SEP2        0.0000 
     69 N          13.4170    5.7175   18.0705 N.am      2 SEC2        0.0000 
     70 N          14.1420    5.7560   16.8260 N.am      6 SEP2        0.0000 
     71 O          12.8405    2.9650   18.0465 O.2       1 ALC1        0.0000 
     72 O          12.2030    3.4140   19.2160 O.2       9 ALL1        0.0000 
     73 O          13.4780    2.5160   16.8770 O.2       5 ALP1        0.0000 
     74 O          11.2490    2.3180   19.2895 O.2       1 ALC1        0.0000 
     75 O          10.2950    1.2220   19.3630 O.2       5 ALP1        0.0000 
     76 NZ          1.1570    6.3170   30.2855 N.4       3 LYC4        0.0000 
     77 NZ         -0.1320    5.8780   30.4240 N.4      11 LYL4        0.0000 
     78 NZ          2.4460    6.7560   30.1470 N.4       7 LYP4        0.0000 
     79 N           1.1570    6.3170   30.2855 N.am      2 SEC2        0.0000 
     80 N          -0.1320    5.8780   30.4240 N.am     10 SEL2        0.0000 
     81 N           2.4460    6.7560   30.1470 N.am      6 SEP2        0.0000 
     82 N           0.0465    4.5075   31.0775 N.am      2 SEC2        0.0000 
     83 N           0.2250    3.1370   31.7310 N.am      6 SEP2        0.0000 
     84 NZ         -3.3000    7.0475   31.8655 N.4       3 LYC4        0.0000 
     85 NZ         -1.8700    7.3280   31.4050 N.4      11 LYL4        0.0000 
     86 NZ         -5.6590    6.3050   31.4920 N.4       7 LYP4        0.0000 
     87 N          -3.3000    7.0475   31.8655 N.am      2 SEC2        0.0000 
     88 N          -1.8700    7.3280   31.4050 N.am     10 SEL2        0.0000 
     89 N          -4.7300    6.7670   32.3260 N.am      6 SEP2        0.0000 
     90 NZ         -3.6480    6.0660   31.1480 N.4       3 LYC4        0.0000 
     91 NZ         -2.5660    5.3650   29.9700 N.4      11 LYL4        0.0000 
     92 N          -2.4735    4.0865   30.0895 N.am      2 SEC2        0.0000 
     93 N          -2.5660    5.3650   29.9700 N.am     10 SEL2        0.0000 
     94 N          -2.3810    2.8080   30.2090 N.am      6 SEP2        0.0000 
     95 N          -3.9225    5.5400   30.1650 N.am      2 SEC2        0.0000 
     96 N          -5.2790    5.7150   30.3600 N.am      6 SEP2        0.0000 
     97 N          -3.6480    6.0660   31.1480 N.am      2 SEC2        0.0000 
     98 CA         -0.3502    8.4740   24.0988 C.3       4 GLC5        0.0000 
     99 CA         -0.1220    7.6810   25.6780 C.3      12 GLL5        0.0000 
    100 CA         -1.0200    9.7890   22.8440 C.3       8 GLP5        0.0000 
    101 CA          1.1473    6.2870   27.8600 C.3       4 GLC5        0.0000 
    102 CA         -6.2515    4.5135   24.1110 C.3       4 GLC5        0.0000 
    103 CA         -4.9400    4.9570   26.0440 C.3      12 GLL5        0.0000 
    104 CA         -6.8870    4.1510   22.3170 C.3       8 GLP5        0.0000 
    105 CA         -3.8980    5.1645   24.5233 C.3       4 GLC5        0.0000 
    106 CA         -5.6050    5.3970   27.6928 C.3       4 GLC5        0.0000 
    107 CA         -4.4500    6.2360   26.2240 C.3      12 GLL5        0.0000 
    108 CA          5.0395    1.4758   21.7413 C.3       4 GLC5        0.0000 
    109 CA          4.8640   -0.4160   20.7790 C.3       8 GLP5        0.0000 
    110 CA          8.1182    4.4610   24.9835 C.3       4 GLC5        0.0000 
    111 CA          6.7550    3.7070   23.9020 C.3      12 GLL5        0.0000 
    112 CA          8.8340    5.5880   26.1980 C.3       8 GLP5        0.0000 
    113 CA          4.5640    3.5426   24.8219 C.3       4 GLC5        0.0000 
    114 CA          3.1430    3.5480   26.3410 C.3       8 GLP5        0.0000 
    115 CA          6.2259    1.7572   24.5598 C.3       4 GLC5        0.0000 
    116 CA          5.8720    3.0210   22.8760 C.3      12 GLL5        0.0000 
    117 CA          5.2700    0.3520   25.6070 C.3       8 GLP5        0.0000 
    118 CA          8.7955    3.9317   19.5757 C.3       4 GLC5        0.0000 
    119 CA          9.9480    3.8800   20.9040 C.3      12 GLL5        0.0000 
    120 CA          8.0781    4.6491   19.8335 C.3       4 GLC5        0.0000 
    121 CA          8.2040    5.3500   21.5600 C.3      12 GLL5        0.0000 
@<TRIPOS>BOND
@<TRIPOS>SUBSTRUCTURE
     1 ALC1       26 GROUP        1 X    ALC  0     ROOT ALC X 1
     2 SEC2        1 GROUP        1 X    SEC  0     **** SEC X 2
     3 LYC4       76 GROUP        1 X    LYC  0     **** LYC X 4
     4 GLC5        9 GROUP        1 X    GLC  0     **** GLC X 6
     5 ALP1       28 GROUP        1 Y    ALP  0     ROOT ALP Y 8
     6 SEP2        3 GROUP        1 Y    SEP  0     **** SEP Y 9
     7 LYP4       78 GROUP        1 Y    LYP  0     **** LYP Y 11
     8 GLP5       11 GROUP        1 Y    GLP  0     **** GLP Y 13
     9 ALL1       27 GROUP        1 Z    ALL  0     ROOT ALL Z 15
    10 SEL2        2 GROUP        1 Z    SEL  0     **** SEL Z 16
    11 LYL4       77 GROUP        1 Z    LYL  0     **** LYL Z 18
    12 GLL5       10 GROUP        1 Z    GLL  0     **** GLL Z 20
@<TRIPOS>SET

