#    Name: 3h7u_NAP_1_ligand
#    Modification time : Tue Mar 25 13:43:40 2014

@<TRIPOS>MOLECULE
3h7u_NAP_1_ligand
   73    77     1     0     0
SMALL
NO_CHARGES


@<TRIPOS>ATOM
      1 PA          1.5050    5.9170   22.6220 P.3       1 NAP401      0.0000 
      2 O1A         1.1430    6.3360   21.2510 O.co2     1 NAP401      0.0000 
      3 O2A         1.5890    4.4930   22.9850 O.co2     1 NAP401      0.0000 
      4 O5B         0.5980    6.7430   23.6240 O.3       1 NAP401      0.0000 
      5 C5B         0.7610    6.6370   25.0290 C.3       1 NAP401      0.0000 
      6 C4B        -0.1220    7.6810   25.6780 C.3       1 NAP401      0.0000 
      7 O4B        -1.4990    7.3680   25.4480 O.3       1 NAP401      0.0000 
      8 C3B         0.0510    7.8090   27.1870 C.3       1 NAP401      0.0000 
      9 O3B        -0.0760    9.1660   27.5410 O.3       1 NAP401      0.0000 
     10 C2B        -1.1080    6.9950   27.7350 C.3       1 NAP401      0.0000 
     11 O2B        -1.5030    7.4490   29.0250 O.3       1 NAP401      0.0000 
     12 C1B        -2.1870    7.2260   26.6880 C.3       1 NAP401      0.0000 
     13 N9A        -3.1290    6.1180   26.5170 N.pl3     1 NAP401      0.0000 
     14 C8A        -2.8210    4.7940   26.4550 C.2       1 NAP401      0.0000 
     15 N7A        -3.9250    4.0720   26.2000 N.2       1 NAP401      0.0000 
     16 C5A        -4.9400    4.9570   26.0440 C.ar      1 NAP401      0.0000 
     17 C6A        -6.2920    4.7950   25.7660 C.ar      1 NAP401      0.0000 
     18 N6A        -6.8380    3.6050   25.6060 N.pl3     1 NAP401      0.0000 
     19 N1A        -7.0540    5.9250   25.7000 N.ar      1 NAP401      0.0000 
     20 C2A        -6.5360    7.1690   25.8740 C.ar      1 NAP401      0.0000 
     21 N3A        -5.2110    7.3580   26.1390 N.ar      1 NAP401      0.0000 
     22 C4A        -4.4500    6.2360   26.2240 C.ar      1 NAP401      0.0000 
     23 O3          2.9190    6.6240   22.9530 O.3       1 NAP401      0.0000 
     24 PN          4.4770    6.2730   23.1370 P.3       1 NAP401      0.0000 
     25 O1N         4.7040    5.8220   24.5500 O.co2     1 NAP401      0.0000 
     26 O2N         5.2110    7.4310   22.5640 O.co2     1 NAP401      0.0000 
     27 O5D         4.7680    5.0560   22.1380 O.3       1 NAP401      0.0000 
     28 C5D         4.5580    3.7140   22.5310 C.3       1 NAP401      0.0000 
     29 C4D         5.8720    3.0210   22.8760 C.3       1 NAP401      0.0000 
     30 O4D         6.6880    2.9320   21.7100 O.3       1 NAP401      0.0000 
     31 C3D         6.7550    3.7070   23.9020 C.3       1 NAP401      0.0000 
     32 O3D         6.2550    3.6030   25.2280 O.3       1 NAP401      0.0000 
     33 C2D         8.0500    2.9610   23.6360 C.3       1 NAP401      0.0000 
     34 O2D         7.9600    1.6500   24.2110 O.3       1 NAP401      0.0000 
     35 C1D         8.0560    2.9180   22.1010 C.3       1 NAP401      0.0000 
     36 N1N         8.7530    4.0920   21.5220 N.pl3     1 NAP401      0.0000 
     37 C2N         9.9480    3.8800   20.9040 C.ar      1 NAP401      0.0000 
     38 C3N        10.6500    4.9250   20.3510 C.ar      1 NAP401      0.0000 
     39 C7N        11.8970    4.6330   19.6050 C.2       1 NAP401      0.0000 
     40 O7N        12.6920    5.6790   19.3150 O.2       1 NAP401      0.0000 
     41 N7N        12.2030    3.4140   19.2160 N.am      1 NAP401      0.0000 
     42 C4N        10.1460    6.2240   20.4270 C.ar      1 NAP401      0.0000 
     43 C5N         8.9030    6.4250   21.0250 C.ar      1 NAP401      0.0000 
     44 C6N         8.2040    5.3500   21.5600 C.ar      1 NAP401      0.0000 
     45 P2B        -1.5120    6.4370   30.2730 P.3       1 NAP401      0.0000 
     46 O1X        -0.1320    5.8780   30.4240 O.co2     1 NAP401      0.0000 
     47 O2X        -1.8700    7.3280   31.4050 O.co2     1 NAP401      0.0000 
     48 O3X        -2.5660    5.3650   29.9700 O.co2     1 NAP401      0.0000 
     49 H           1.7908    6.8248   25.3363 H         1 NAP401      0.0000 
     50 H           0.4594    5.6574   25.4027 H         1 NAP401      0.0000 
     51 H           0.1031    8.6546   25.2370 H         1 NAP401      0.0000 
     52 H           0.9533    7.3600   27.4608 H         1 NAP401      0.0000 
     53 H          -0.8316    5.9683   27.7014 H         1 NAP401      0.0000 
     54 H          -2.7046    8.1366   26.9198 H         1 NAP401      0.0000 
     55 H          -1.9236    4.4306   26.5793 H         1 NAP401      0.0000 
     56 H          -7.7896    3.5144   25.8997 H         1 NAP401      0.0000 
     57 H          -6.2507    2.9017   25.2055 H         1 NAP401      0.0000 
     58 H          -7.1661    8.0035   25.8036 H         1 NAP401      0.0000 
     59 H           4.0718    3.1229   21.7334 H         1 NAP401      0.0000 
     60 H           3.9035    3.6428   23.4190 H         1 NAP401      0.0000 
     61 H           5.6604    2.0144   23.2352 H         1 NAP401      0.0000 
     62 H           6.8966    4.7160   23.5572 H         1 NAP401      0.0000 
     63 H           8.8480    3.5386   23.9663 H         1 NAP401      0.0000 
     64 H           8.5315    2.0092   21.7992 H         1 NAP401      0.0000 
     65 H          10.3397    2.9170   20.8466 H         1 NAP401      0.0000 
     66 H          11.5237    2.7064   19.4107 H         1 NAP401      0.0000 
     67 H          13.0870    3.3062   18.7611 H         1 NAP401      0.0000 
     68 H          10.6757    7.0083   20.0532 H         1 NAP401      0.0000 
     69 H           8.5039    7.3724   21.0693 H         1 NAP401      0.0000 
     70 H           7.2772    5.5039   21.9823 H         1 NAP401      0.0000 
     71 H          -0.5998    9.1632   28.3928 H         1 NAP401      0.0000 
     72 H           5.6107    4.3620   25.3218 H         1 NAP401      0.0000 
     73 H           8.5648    1.0811   23.6538 H         1 NAP401      0.0000 
@<TRIPOS>BOND
     1    2    1 ar   
     2    3    1 ar   
     3    4    1 1    
     4   23    1 1    
     5    5    4 1    
     6    6    5 1    
     7   49    5 1    
     8   50    5 1    
     9    7    6 1    
    10    8    6 1    
    11   51    6 1    
    12   12    7 1    
    13    9    8 1    
    14   10    8 1    
    15   52    8 1    
    16   71    9 1    
    17   11   10 1    
    18   12   10 1    
    19   53   10 1    
    20   45   11 1    
    21   13   12 1    
    22   54   12 1    
    23   14   13 1    
    24   22   13 1    
    25   15   14 2    
    26   55   14 1    
    27   16   15 1    
    28   17   16 ar   
    29   22   16 ar   
    30   18   17 1    
    31   19   17 ar   
    32   56   18 1    
    33   57   18 1    
    34   20   19 ar   
    35   21   20 ar   
    36   58   20 1    
    37   22   21 ar   
    38   24   23 1    
    39   25   24 ar   
    40   26   24 ar   
    41   27   24 1    
    42   28   27 1    
    43   29   28 1    
    44   59   28 1    
    45   60   28 1    
    46   30   29 1    
    47   31   29 1    
    48   61   29 1    
    49   35   30 1    
    50   32   31 1    
    51   33   31 1    
    52   62   31 1    
    53   72   32 1    
    54   34   33 1    
    55   35   33 1    
    56   63   33 1    
    57   73   34 1    
    58   36   35 1    
    59   64   35 1    
    60   37   36 ar   
    61   44   36 ar   
    62   38   37 ar   
    63   65   37 1    
    64   39   38 1    
    65   42   38 ar   
    66   40   39 2    
    67   41   39 am   
    68   66   41 1    
    69   67   41 1    
    70   43   42 ar   
    71   68   42 1    
    72   44   43 ar   
    73   69   43 1    
    74   70   44 1    
    75   46   45 ar   
    76   47   45 ar   
    77   48   45 ar   
@<TRIPOS>SUBSTRUCTURE
     1 NAP401      1 GROUP   
@<TRIPOS>SET

