#    Name: 2QBS_1_CAVITY_N1_6.mol2
#    Modification time : Tue Mar 11 07:13:32 2014

@<TRIPOS>MOLECULE
2QBS_1_CAVITY_N1_6.mol2
   66     0     5     0     0
SMALL
NO_CHARGES


@<TRIPOS>ATOM
      1 CA         46.7584    8.2811    0.5235 C.3       4 GLY6        0.0000 
      2 CA         44.6854    7.9563    0.2119 C.3       4 GLY6        0.0000 
      3 CZ         48.1554   13.0528    0.6959 C.ar      3 PHE5        0.0000 
      4 CZ         44.7543   15.5213   -0.9131 C.ar      3 PHE5        0.0000 
      5 CA         43.6206   16.3441   -1.4494 C.3       4 GLY6        0.0000 
      6 N          48.3498   11.0822    1.4569 N.2       2 ALA2        0.0000 
      7 N          47.2161   11.9051    0.9206 N.2       2 ALA2        0.0000 
      8 CZ         46.0824   12.7279    0.3843 C.ar      3 PHE5        0.0000 
      9 CZ         44.9487   13.5507   -0.1521 C.ar      3 PHE5        0.0000 
     10 CZ         43.8150   14.3736   -0.6884 C.ar      3 PHE5        0.0000 
     11 OG         42.6813   15.1964   -1.2247 O.2       1 SER1        0.0000 
     12 N          48.5442    9.1117    2.2179 N.2       2 ALA2        0.0000 
     13 N          47.4105    9.9345    1.6816 N.2       2 ALA2        0.0000 
     14 CA         46.2768   10.7573    1.1453 C.3       4 GLY6        0.0000 
     15 DU         45.1431   11.5802    0.6089 H         5 CUB7        0.0000 
     16 CZ         44.0094   12.4030    0.0726 C.ar      3 PHE5        0.0000 
     17 CA         46.4712    8.7868    1.9062 C.3       4 GLY6        0.0000 
     18 CA         45.3375    9.6096    1.3699 C.3       4 GLY6        0.0000 
     19 CZ         44.2038   10.4325    0.8336 C.ar      3 PHE5        0.0000 
     20 CZ         47.8683   13.5584    2.0786 C.ar      3 PHE5        0.0000 
     21 CZ         46.7346   14.3813    1.5423 C.ar      3 PHE5        0.0000 
     22 CZ         45.6009   15.2041    1.0060 C.ar      3 PHE5        0.0000 
     23 CZ         44.4672   16.0269    0.4696 C.ar      3 PHE5        0.0000 
     24 CA         43.3335   16.8498   -0.0667 C.3       4 GLY6        0.0000 
     25 N          46.9290   12.4107    2.3033 N.2       2 ALA2        0.0000 
     26 CA         45.7953   13.2335    1.7670 C.3       4 GLY6        0.0000 
     27 CZ         44.6616   14.0564    1.2306 C.ar      3 PHE5        0.0000 
     28 OG         43.5279   14.8792    0.6943 O.2       1 SER1        0.0000 
     29 CA         48.2571    9.6173    3.6006 C.3       4 GLY6        0.0000 
     30 CA         47.1234   10.4401    3.0643 C.3       4 GLY6        0.0000 
     31 CA         45.9897   11.2630    2.5280 C.3       4 GLY6        0.0000 
     32 CA         44.8560   12.0858    1.9916 C.3       4 GLY6        0.0000 
     33 CZ         43.7223   12.9087    1.4553 C.ar      3 PHE5        0.0000 
     34 CA         43.9167   10.9381    2.2163 C.3       4 GLY6        0.0000 
     35 CZ         48.3260   17.1823    2.4757 C.ar      3 PHE5        0.0000 
     36 CA         48.5205   15.2118    3.2367 C.3       4 GLY6        0.0000 
     37 CZ         47.3868   16.0346    2.7003 C.ar      3 PHE5        0.0000 
     38 CZ         46.2530   16.8575    2.1640 C.ar      3 PHE5        0.0000 
     39 CZ         45.1193   17.6803    1.6277 C.ar      3 PHE5        0.0000 
     40 CA         47.5812   14.0641    3.4613 C.3       4 GLY6        0.0000 
     41 CZ         46.4475   14.8869    2.9250 C.ar      3 PHE5        0.0000 
     42 CZ         45.3138   15.7097    2.3887 C.ar      3 PHE5        0.0000 
     43 OG         44.1801   16.5326    1.8523 O.2       1 SER1        0.0000 
     44 CA         47.7756   12.0935    4.2223 C.3       4 GLY6        0.0000 
     45 CA         46.6419   12.9164    3.6860 C.3       4 GLY6        0.0000 
     46 CA         45.5082   13.7392    3.1497 C.3       4 GLY6        0.0000 
     47 CA         44.3745   14.5620    2.6133 C.3       4 GLY6        0.0000 
     48 OG         43.2408   15.3849    2.0770 O.2       1 SER1        0.0000 
     49 CA         45.7026   11.7686    3.9107 C.3       4 GLY6        0.0000 
     50 CA         49.1726   16.8652    4.3947 C.3       4 GLY6        0.0000 
     51 O          48.0389   17.6880    3.8584 O.2       2 ALA2        0.0000 
     52 O          46.9052   18.5108    3.3221 O.2       2 ALA2        0.0000 
     53 CA         48.2333   15.7174    4.6194 C.3       4 GLY6        0.0000 
     54 DU         47.0996   16.5403    4.0831 H         5 CUB7        0.0000 
     55 O          45.9659   17.3631    3.5467 O.2       2 ALA2        0.0000 
     56 O          44.8322   18.1860    3.0104 O.2       2 ALA2        0.0000 
     57 O          47.2940   14.5697    4.8440 O.2       2 ALA2        0.0000 
     58 CA         46.1603   15.3926    4.3077 C.3       4 GLY6        0.0000 
     59 O          45.0266   16.2154    3.7714 O.2       2 ALA2        0.0000 
     60 CA         43.8929   17.0382    3.2351 C.3       4 GLY6        0.0000 
     61 CA         46.3547   13.4220    5.0687 C.3       4 GLY6        0.0000 
     62 CA         44.0873   15.0677    3.9960 C.3       4 GLY6        0.0000 
     63 O          46.8125   17.0459    5.4658 O.2       2 ALA2        0.0000 
     64 O          45.6788   17.8688    4.9294 O.2       2 ALA2        0.0000 
     65 CA         45.8732   15.8982    5.6904 C.3       4 GLY6        0.0000 
     66 CA         44.7395   16.7210    5.1541 C.3       4 GLY6        0.0000 
@<TRIPOS>BOND
@<TRIPOS>SUBSTRUCTURE
     1 SER1       11 GROUP   
     2 ALA2        6 GROUP   
     3 PHE5        3 GROUP   
     4 GLY6        1 GROUP   
     5 CUB7       15 GROUP   
@<TRIPOS>SET

