#    Name: 2qbs_024_1_INTS_M
#    Modification time : Mon Mar 24 21:43:25 2014

@<TRIPOS>MOLECULE
2qbs_024_1_INTS_M
   60     0     9     0     0
SMALL
NO_CHARGES


@<TRIPOS>ATOM
      1 NZ         43.1715   18.2010    0.2970 N.4       2 LYC4        0.0000 
      2 NZ         43.4980   16.6800    0.1500 N.4       8 LYL4        0.0000 
      3 NZ         42.8450   19.7220    0.4440 N.4       5 LYP4        0.0000 
      4 NZ         43.4130   18.6515    1.2400 N.4       2 LYC4        0.0000 
      5 NZ         43.9810   17.5810    2.0360 N.4       8 LYL4        0.0000 
      6 N          43.4130   18.6515    1.2400 N.am      1 SEC2        0.0000 
      7 N          43.9810   17.5810    2.0360 N.am      7 SEL2        0.0000 
      8 N          42.8450   19.7220    0.4440 N.am      4 SEP2        0.0000 
      9 CA         47.2440   10.6665    3.6610 C.3       3 GLC5        0.0000 
     10 CA         47.2610   11.0370    1.4450 C.3       9 GLL5        0.0000 
     11 CA         47.2270   10.2960    5.8770 C.3       6 GLP5        0.0000 
     12 CA         45.4750   13.0410    4.3725 C.3       3 GLC5        0.0000 
     13 CA         47.4770   13.3320    3.9450 C.3       9 GLL5        0.0000 
     14 CA         43.4730   12.7500    4.8000 C.3       6 GLP5        0.0000 
     15 CA         47.2035   12.4100    5.3715 C.3       3 GLC5        0.0000 
     16 CA         46.9300   11.4880    6.7980 C.3       6 GLP5        0.0000 
     17 CA         48.1875   14.2265    5.7530 C.3       3 GLC5        0.0000 
     18 CA         48.8980   15.1210    7.5610 C.3       6 GLP5        0.0000 
     19 CA         49.2985   13.8075    4.1995 C.3       3 GLC5        0.0000 
     20 CA         51.1200   14.2830    4.4540 C.3       6 GLP5        0.0000 
     21 CA         47.1900   19.1275    3.0400 C.3       3 GLC5        0.0000 
     22 CA         47.2490   16.9320    3.4120 C.3       9 GLL5        0.0000 
     23 CA         47.1310   21.3230    2.6680 C.3       6 GLP5        0.0000 
     24 CA         48.5450   16.7630    1.9530 C.3       3 GLC5        0.0000 
     25 CA         49.8410   16.5940    0.4940 C.3       6 GLP5        0.0000 
     26 NZ         46.3665   18.9505    5.9160 N.4       2 LYC4        0.0000 
     27 NZ         46.8770   17.5250    5.6970 N.4       8 LYL4        0.0000 
     28 NZ         44.9010   20.9310    5.3910 N.4       5 LYP4        0.0000 
     29 N          47.5605   17.4065    7.0450 N.am      1 SEC2        0.0000 
     30 N          46.8770   17.5250    5.6970 N.am      7 SEL2        0.0000 
     31 N          48.2440   17.2880    8.3930 N.am      4 SEP2        0.0000 
     32 N          46.3665   18.9505    5.9160 N.am      1 SEC2        0.0000 
     33 N          45.8560   20.3760    6.1350 N.am      4 SEP2        0.0000 
     34 N          48.8925   19.0000    3.7040 N.am      1 SEC2        0.0000 
     35 N          48.7320   18.1660    4.7830 N.am      7 SEL2        0.0000 
     36 N          49.0530   19.8340    2.6250 N.am      4 SEP2        0.0000 
     37 N          50.0110   18.4305    5.4095 N.am      1 SEC2        0.0000 
     38 N          51.2900   18.6950    6.0360 N.am      4 SEP2        0.0000 
     39 CA         47.4715    5.1755    4.9820 C.3       3 GLC5        0.0000 
     40 CA         48.8790    6.1190    3.7780 C.3       9 GLL5        0.0000 
     41 CA         46.0640    4.2320    6.1860 C.3       6 GLP5        0.0000 
     42 CA         46.3685    8.0960    3.4600 C.3       3 GLC5        0.0000 
     43 CA         48.4240    7.4700    3.1930 C.3       9 GLL5        0.0000 
     44 CA         44.3130    8.7220    3.7270 C.3       6 GLP5        0.0000 
     45 CA         47.8255    8.8830    4.5350 C.3       3 GLC5        0.0000 
     46 CA         45.4758   10.0480    2.5205 C.3       3 GLC5        0.0000 
     47 CA         46.0160   11.7110    1.1830 C.3       9 GLL5        0.0000 
     48 CA         45.5900    9.0160    2.2415 C.3       3 GLC5        0.0000 
     49 CA         47.4050    9.6640    1.0720 C.3       9 GLL5        0.0000 
     50 CA         45.2975    7.3647    0.2102 C.3       3 GLC5        0.0000 
     51 CA         46.3290    8.9560    0.4400 C.3       9 GLL5        0.0000 
     52 CA         44.8830    5.4450    0.1140 C.3       6 GLP5        0.0000 
     53 CA         43.0380    9.8887    0.8795 C.3       3 GLC5        0.0000 
     54 CA         45.0950    9.6130    0.1730 C.3       9 GLL5        0.0000 
     55 CA         41.0540    9.4810    1.3980 C.3       6 GLP5        0.0000 
     56 CA         44.6675    9.5092    2.0440 C.3       3 GLC5        0.0000 
     57 CA         49.9502    7.0928    5.6988 C.3       3 GLC5        0.0000 
     58 CA         50.2470    8.1030    7.5620 C.3       6 GLP5        0.0000 
     59 CA         44.5424   13.5987    3.4472 C.3       3 GLC5        0.0000 
     60 CA         46.2290   13.9270    2.6200 C.3       9 GLL5        0.0000 
@<TRIPOS>BOND
@<TRIPOS>SUBSTRUCTURE
     1 SEC2        6 GROUP        1 X    SEC  0     ROOT SEC X 2
     2 LYC4        1 GROUP        1 X    LYC  0     **** LYC X 4
     3 GLC5        9 GROUP        1 X    GLC  0     **** GLC X 6
     4 SEP2        8 GROUP        1 Y    SEP  0     ROOT SEP Y 9
     5 LYP4        3 GROUP        1 Y    LYP  0     **** LYP Y 11
     6 GLP5       11 GROUP        1 Y    GLP  0     **** GLP Y 13
     7 SEL2        7 GROUP        1 Z    SEL  0     ROOT SEL Z 16
     8 LYL4        2 GROUP        1 Z    LYL  0     **** LYL Z 18
     9 GLL5       10 GROUP        1 Z    GLL  0     **** GLL Z 20
@<TRIPOS>SET

