#    Name: 2qbs_024_1_ligand
#    Modification time : Mon Mar 24 21:43:25 2014

@<TRIPOS>MOLECULE
2qbs_024_1_ligand
   45    47     1     0     0
SMALL
NO_CHARGES


@<TRIPOS>ATOM
      1 S1         44.6510   14.0740    0.6210 S.3       1 024800      0.0000 
      2 C2         44.7900   15.4820    1.5710 C.2       1 024800      0.0000 
      3 C3         45.6940   15.2460    2.6400 C.2       1 024800      0.0000 
      4 C4         46.2290   13.9270    2.6200 C.2       1 024800      0.0000 
      5 C5         45.7340   13.1350    1.5470 C.2       1 024800      0.0000 
      6 C6         44.0570   16.6430    1.2480 C.2       1 024800      0.0000 
      7 O7         43.4980   16.6800    0.1500 O.co2     1 024800      0.0000 
      8 O8         43.9810   17.5810    2.0360 O.co2     1 024800      0.0000 
      9 C9         46.0160   11.7110    1.1830 C.ar      1 024800      0.0000 
     10 C10        47.2610   11.0370    1.4450 C.ar      1 024800      0.0000 
     11 C11        47.4050    9.6640    1.0720 C.ar      1 024800      0.0000 
     12 C12        46.3290    8.9560    0.4400 C.ar      1 024800      0.0000 
     13 C13        45.0950    9.6130    0.1730 C.ar      1 024800      0.0000 
     14 C14        44.9490   10.9800    0.5490 C.ar      1 024800      0.0000 
     15 BR19       47.4770   13.3320    3.9450 Br        1 024800      0.0000 
     16 O20        46.0630   16.1740    3.6490 O.3       1 024800      0.0000 
     17 C21        47.2490   16.9320    3.4120 C.3       1 024800      0.0000 
     18 C22        47.6510   17.5920    4.7270 C.2       1 024800      0.0000 
     19 O25        46.8770   17.5250    5.6970 O.co2     1 024800      0.0000 
     20 O26        48.7320   18.1660    4.7830 O.co2     1 024800      0.0000 
     21 N27        48.6210    8.9650    1.3420 N.pl3     1 024800      0.0000 
     22 C28        49.1550    7.7650    1.8570 C.3       1 024800      0.0000 
     23 C30        50.6800    7.8220    2.0380 C.3       1 024800      0.0000 
     24 C31        51.1580    6.4520    2.5800 C.3       1 024800      0.0000 
     25 C32        50.4280    6.0460    3.8930 C.3       1 024800      0.0000 
     26 C33        48.8790    6.1190    3.7780 C.3       1 024800      0.0000 
     27 C34        48.4240    7.4700    3.1930 C.3       1 024800      0.0000 
     28 H          48.0205   11.5315    1.8869 H         1 024800      0.0000 
     29 H          46.4537    7.9790    0.1832 H         1 024800      0.0000 
     30 H          44.3368    9.1208   -0.2743 H         1 024800      0.0000 
     31 H          44.0610   11.4628    0.3656 H         1 024800      0.0000 
     32 H          47.0896   17.7182    2.6762 H         1 024800      0.0000 
     33 H          48.0754   16.3035    3.0848 H         1 024800      0.0000 
     34 H          49.5297    9.6672    1.0002 H         1 024800      0.0000 
     35 H          48.9255    6.9245    1.1927 H         1 024800      0.0000 
     36 H          50.9305    8.5886    2.7488 H         1 024800      0.0000 
     37 H          51.1492    8.0082    1.0889 H         1 024800      0.0000 
     38 H          52.2295    6.5006    2.7751 H         1 024800      0.0000 
     39 H          50.9740    5.6869    1.8255 H         1 024800      0.0000 
     40 H          50.7538    6.7106    4.6968 H         1 024800      0.0000 
     41 H          50.7146    5.0243    4.1536 H         1 024800      0.0000 
     42 H          48.4485    5.9922    4.7674 H         1 024800      0.0000 
     43 H          48.5380    5.3144    3.1326 H         1 024800      0.0000 
     44 H          47.3555    7.4403    3.0100 H         1 024800      0.0000 
     45 H          48.6497    8.2613    3.8994 H         1 024800      0.0000 
@<TRIPOS>BOND
     1    2    1 1    
     2    5    1 1    
     3    3    2 2    
     4    6    2 1    
     5    4    3 1    
     6   16    3 1    
     7    5    4 2    
     8   15    4 1    
     9    9    5 1    
    10    7    6 ar   
    11    8    6 ar   
    12   10    9 ar   
    13   14    9 ar   
    14   11   10 ar   
    15   28   10 1    
    16   12   11 ar   
    17   21   11 1    
    18   13   12 ar   
    19   29   12 1    
    20   14   13 ar   
    21   30   13 1    
    22   31   14 1    
    23   17   16 1    
    24   18   17 1    
    25   32   17 1    
    26   33   17 1    
    27   19   18 ar   
    28   20   18 ar   
    29   22   21 1    
    30   34   21 1    
    31   23   22 1    
    32   27   22 1    
    33   35   22 1    
    34   24   23 1    
    35   36   23 1    
    36   37   23 1    
    37   25   24 1    
    38   38   24 1    
    39   39   24 1    
    40   26   25 1    
    41   40   25 1    
    42   41   25 1    
    43   27   26 1    
    44   42   26 1    
    45   43   26 1    
    46   44   27 1    
    47   45   27 1    
@<TRIPOS>SUBSTRUCTURE
     1 024800      1 GROUP   
@<TRIPOS>SET

