#    Name: 2fzj_DH3_1_INTS_M
#    Modification time : Tue Mar 25 13:17:37 2014

@<TRIPOS>MOLECULE
2fzj_DH3_1_INTS_M
   80     0    12     0     0
SMALL
NO_CHARGES


@<TRIPOS>ATOM
      1 O          -0.5315   -1.0835   12.5775 O.2       1 ALC1        0.0000 
      2 O           1.0150   -1.0310   12.6170 O.2       9 ALL1        0.0000 
      3 O          -2.0780   -1.1360   12.5380 O.2       5 ALP1        0.0000 
      4 O           1.1835    0.2455   12.6885 O.2       1 ALC1        0.0000 
      5 O           1.3520    1.5220   12.7600 O.2       5 ALP1        0.0000 
      6 CA         -0.0795   -2.1285   11.4450 C.3       4 GLC5        0.0000 
      7 CA          1.3930   -2.3060   13.1220 C.3      12 GLL5        0.0000 
      8 CA         -1.5520   -1.9510    9.7680 C.3       8 GLP5        0.0000 
      9 CA         -0.6105   -2.5290   13.9050 C.3       4 GLC5        0.0000 
     10 CA         -2.6140   -2.7520   14.6880 C.3       8 GLP5        0.0000 
     11 CA         -0.7765   -4.3780   12.1220 C.3       4 GLC5        0.0000 
     12 CA          0.6730   -4.5490   13.6570 C.3      12 GLL5        0.0000 
     13 CA         -2.2260   -4.2070   10.5870 C.3       8 GLP5        0.0000 
     14 CA         -0.9705   -3.6505   14.1725 C.3       4 GLC5        0.0000 
     15 CA          0.1890   -5.1980   15.4865 C.3       4 GLC5        0.0000 
     16 CA         -0.2950   -5.8470   17.3160 C.3       8 GLP5        0.0000 
     17 CA          1.6890   -5.3595   12.1200 C.3       4 GLC5        0.0000 
     18 CA          2.7050   -6.1700   10.5830 C.3       8 GLP5        0.0000 
     19 O           0.0610   -6.9200   14.0595 O.2       1 ALC1        0.0000 
     20 O          -0.3650   -5.4810   13.6870 O.2       9 ALL1        0.0000 
     21 O           0.4870   -8.3590   14.4320 O.2       5 ALP1        0.0000 
     22 N           2.2190   -6.3110   14.5870 N.am      2 SEC2        0.0000 
     23 N           1.9420   -4.8690   14.0860 N.am     10 SEL2        0.0000 
     24 N           2.4960   -7.7530   15.0880 N.am      6 SEP2        0.0000 
     25 CA          2.8345   -5.0575   12.3160 C.3       4 GLC5        0.0000 
     26 CA          2.9640   -3.9450   14.0490 C.3      12 GLL5        0.0000 
     27 CA          3.0925   -1.8885   11.6205 C.3       4 GLC5        0.0000 
     28 CA          3.7170   -1.3310   13.3930 C.3      12 GLL5        0.0000 
     29 CA          2.4680   -2.4460    9.8480 C.3       8 GLP5        0.0000 
     30 CA          2.7080   -0.5385   14.7315 C.3       4 GLC5        0.0000 
     31 CA          1.6990    0.2540   16.0700 C.3       8 GLP5        0.0000 
     32 CA          7.7360   -4.6725   14.1095 C.3       4 GLC5        0.0000 
     33 CA          8.4060   -3.4360   12.8790 C.3      12 GLL5        0.0000 
     34 CA          7.0660   -5.9090   15.3400 C.3       8 GLP5        0.0000 
     35 CA          7.8335   -5.4550   13.1960 C.3       4 GLC5        0.0000 
     36 CA          8.9110   -4.2740   12.2090 C.3      12 GLL5        0.0000 
     37 CA          6.7560   -6.6360   14.1830 C.3       8 GLP5        0.0000 
     38 CA          8.4780   -6.3815   12.5760 C.3       4 GLC5        0.0000 
     39 CA          9.4130   -5.0460   11.3610 C.3      12 GLL5        0.0000 
     40 CA          7.5430   -7.7170   13.7910 C.3       8 GLP5        0.0000 
     41 CA          8.2700   -6.9920   11.3450 C.3       4 GLC5        0.0000 
     42 CA          9.2930   -5.5100   10.1660 C.3      12 GLL5        0.0000 
     43 CA          7.2470   -8.4740   12.5240 C.3       8 GLP5        0.0000 
     44 CA          6.7590   -3.9495    9.2915 C.3       4 GLC5        0.0000 
     45 CA          8.7690   -4.7530    9.0380 C.3      12 GLL5        0.0000 
     46 CA          4.7490   -3.1460    9.5450 C.3       8 GLP5        0.0000 
     47 CA          8.5740   -2.5675    8.6095 C.3       4 GLC5        0.0000 
     48 CA          8.3790   -0.3820    8.1810 C.3       8 GLP5        0.0000 
     49 NZ         10.1235   -3.5330    6.5975 N.4       3 LYC4        0.0000 
     50 NZ          9.2620   -4.6590    6.7430 N.4      11 LYL4        0.0000 
     51 NZ         10.9850   -2.4070    6.4520 N.4       7 LYP4        0.0000 
     52 NZ          7.4555   -3.9770    5.9895 N.4       3 LYC4        0.0000 
     53 NZ          6.4370   -2.9610    4.6130 N.4       7 LYP4        0.0000 
     54 N          10.1235   -3.5330    6.5975 N.am      2 SEC2        0.0000 
     55 N           9.2620   -4.6590    6.7430 N.am     10 SEL2        0.0000 
     56 N          10.9850   -2.4070    6.4520 N.am      6 SEP2        0.0000 
     57 N           8.4755   -4.0270    5.7210 N.am      2 SEC2        0.0000 
     58 N           7.6890   -3.3950    4.6990 N.am      6 SEP2        0.0000 
     59 NZ          6.4140   -3.8595    6.4515 N.4       3 LYC4        0.0000 
     60 NZ          7.2220   -4.5590    7.2800 N.4      11 LYL4        0.0000 
     61 N           6.4140   -3.8595    6.4515 N.am      2 SEC2        0.0000 
     62 N           7.2220   -4.5590    7.2800 N.am     10 SEL2        0.0000 
     63 N           5.6060   -3.1600    5.6230 N.am      6 SEP2        0.0000 
     64 N           7.4555   -3.9770    5.9895 N.am      2 SEC2        0.0000 
     65 CA          7.9770   -3.7900   17.6285 C.3       4 GLC5        0.0000 
     66 CA          9.5790   -3.1270   16.5830 C.3      12 GLL5        0.0000 
     67 CA          6.3750   -4.4530   18.6740 C.3       8 GLP5        0.0000 
     68 CA          8.8740   -4.6995   16.3440 C.3       4 GLC5        0.0000 
     69 CA          8.1690   -6.2720   16.1050 C.3       8 GLP5        0.0000 
     70 CA         11.0390   -1.9270   15.6155 C.3       4 GLC5        0.0000 
     71 CA         12.4990   -0.7270   14.6480 C.3       8 GLP5        0.0000 
     72 CA          8.6050    2.3150   17.2100 C.3       4 GLC5        0.0000 
     73 CA          8.1920    0.6690   16.7200 C.3      12 GLL5        0.0000 
     74 CA          9.0180    3.9610   17.7000 C.3       8 GLP5        0.0000 
     75 CA          8.4545    1.1490   14.8555 C.3       4 GLC5        0.0000 
     76 CA          8.7170    1.6290   12.9910 C.3       8 GLP5        0.0000 
     77 CA          5.6658   -1.7452   17.2335 C.3       4 GLC5        0.0000 
     78 CA          6.8940   -1.2320   15.6740 C.3      12 GLL5        0.0000 
     79 CA          5.0990   -2.3540   19.0670 C.3       8 GLP5        0.0000 
     80 CA          7.9953   -0.0745   13.9881 C.3       4 GLC5        0.0000 
@<TRIPOS>BOND
@<TRIPOS>SUBSTRUCTURE
     1 ALC1        1 GROUP        1 X    ALC  0     ROOT ALC X 1
     2 SEC2       22 GROUP        1 X    SEC  0     **** SEC X 2
     3 LYC4       49 GROUP        1 X    LYC  0     **** LYC X 4
     4 GLC5        6 GROUP        1 X    GLC  0     **** GLC X 6
     5 ALP1        3 GROUP        1 Y    ALP  0     ROOT ALP Y 8
     6 SEP2       24 GROUP        1 Y    SEP  0     **** SEP Y 9
     7 LYP4       51 GROUP        1 Y    LYP  0     **** LYP Y 11
     8 GLP5        8 GROUP        1 Y    GLP  0     **** GLP Y 13
     9 ALL1        2 GROUP        1 Z    ALL  0     ROOT ALL Z 15
    10 SEL2       23 GROUP        1 Z    SEL  0     **** SEL Z 16
    11 LYL4       50 GROUP        1 Z    LYL  0     **** LYL Z 18
    12 GLL5        7 GROUP        1 Z    GLL  0     **** GLL Z 20
@<TRIPOS>SET

