#    Name: 2fzj_DH3_1_ligand
#    Modification time : Tue Mar 25 13:17:37 2014

@<TRIPOS>MOLECULE
2fzj_DH3_1_ligand
   48    49     1     0     0
SMALL
NO_CHARGES


@<TRIPOS>ATOM
      1 N4          1.0150   -1.0310   12.6170 N.pl3     1 DH3188      0.0000 
      2 C4          1.3930   -2.3060   13.1220 C.ar      1 DH3188      0.0000 
      3 N3          0.4170   -3.2790   13.1870 N.ar      1 DH3188      0.0000 
      4 C2          0.6730   -4.5490   13.6570 C.ar      1 DH3188      0.0000 
      5 N2         -0.3650   -5.4810   13.6870 N.pl3     1 DH3188      0.0000 
      6 N1          1.9420   -4.8690   14.0860 N.ar      1 DH3188      0.0000 
      7 C6          2.9640   -3.9450   14.0490 C.ar      1 DH3188      0.0000 
      8 C5          2.7550   -2.5980   13.5600 C.ar      1 DH3188      0.0000 
      9 C51         3.7170   -1.3310   13.3930 C.3       1 DH3188      0.0000 
     10 C1'         5.1710   -1.6120   13.8700 C.ar      1 DH3188      0.0000 
     11 C6'         6.1180   -2.4120   13.1210 C.ar      1 DH3188      0.0000 
     12 C52         7.4530   -2.6130   13.6600 C.ar      1 DH3188      0.0000 
     13 C53         8.4060   -3.4360   12.8790 C.1       1 DH3188      0.0000 
     14 C54         8.9110   -4.2740   12.2090 C.1       1 DH3188      0.0000 
     15 C1          9.4130   -5.0460   11.3610 C.3       1 DH3188      0.0000 
     16 C3          9.2930   -5.5100   10.1660 C.3       1 DH3188      0.0000 
     17 C7          8.7690   -4.7530    9.0380 C.3       1 DH3188      0.0000 
     18 C8          8.3950   -4.6490    7.6030 C.2       1 DH3188      0.0000 
     19 O10         9.2620   -4.6590    6.7430 O.co2     1 DH3188      0.0000 
     20 O9          7.2220   -4.5590    7.2800 O.co2     1 DH3188      0.0000 
     21 C4'         7.8530   -2.0350   14.9330 C.ar      1 DH3188      0.0000 
     22 O5          9.1670   -2.2640   15.4140 O.3       1 DH3188      0.0000 
     23 C5'         9.5790   -3.1270   16.5830 C.3       1 DH3188      0.0000 
     24 C3'         6.8940   -1.2320   15.6740 C.ar      1 DH3188      0.0000 
     25 O4          7.2370   -0.6620   16.9050 O.3       1 DH3188      0.0000 
     26 C4B         8.1920    0.6690   16.7200 C.3       1 DH3188      0.0000 
     27 C2'         5.5710   -1.0410   15.1260 C.ar      1 DH3188      0.0000 
     28 H           0.2564   -1.0231   11.9654 H         1 DH3188      0.0000 
     29 H           1.5397   -0.2502   12.9561 H         1 DH3188      0.0000 
     30 H          -0.1466   -6.3700   14.0895 H         1 DH3188      0.0000 
     31 H          -1.2380   -5.1798   13.3034 H         1 DH3188      0.0000 
     32 H           3.9145   -4.1906   14.3718 H         1 DH3188      0.0000 
     33 H           3.2955   -0.5147   13.9731 H         1 DH3188      0.0000 
     34 H           3.7259   -1.0566   12.3418 H         1 DH3188      0.0000 
     35 H           5.8594   -2.8214   12.2450 H         1 DH3188      0.0000 
     36 H           9.6859   -6.1158   12.0490 H         1 DH3188      0.0000 
     37 H          10.6863   -4.7891   11.4334 H         1 DH3188      0.0000 
     38 H           8.6812   -6.5253   10.1608 H         1 DH3188      0.0000 
     39 H          10.3175   -5.9629    9.7782 H         1 DH3188      0.0000 
     40 H           9.3753   -3.6031    9.2032 H         1 DH3188      0.0000 
     41 H           7.7383   -4.1607    9.5895 H         1 DH3188      0.0000 
     42 H           4.8947   -0.4762   15.6560 H         1 DH3188      0.0000 
     43 H          10.5700   -3.1228   16.7166 H         1 DH3188      0.0000 
     44 H           9.1665   -2.8147   17.4388 H         1 DH3188      0.0000 
     45 H           9.3044   -4.0801   16.4560 H         1 DH3188      0.0000 
     46 H           8.4374    1.0753   17.6002 H         1 DH3188      0.0000 
     47 H           9.0469    0.4502   16.2496 H         1 DH3188      0.0000 
     48 H           7.7371    1.3811   16.1852 H         1 DH3188      0.0000 
@<TRIPOS>BOND
     1    2    1 1    
     2   28    1 1    
     3   29    1 1    
     4    3    2 ar   
     5    8    2 ar   
     6    4    3 ar   
     7    5    4 1    
     8    6    4 ar   
     9   30    5 1    
    10   31    5 1    
    11    7    6 ar   
    12    8    7 ar   
    13   32    7 1    
    14    9    8 1    
    15   10    9 1    
    16   33    9 1    
    17   34    9 1    
    18   11   10 ar   
    19   27   10 ar   
    20   12   11 ar   
    21   35   11 1    
    22   13   12 1    
    23   21   12 ar   
    24   14   13 3    
    25   15   14 1    
    26   16   15 1    
    27   36   15 1    
    28   37   15 1    
    29   17   16 1    
    30   38   16 1    
    31   39   16 1    
    32   18   17 1    
    33   40   17 1    
    34   41   17 1    
    35   19   18 ar   
    36   20   18 ar   
    37   22   21 1    
    38   24   21 ar   
    39   23   22 1    
    40   43   23 1    
    41   44   23 1    
    42   45   23 1    
    43   25   24 1    
    44   27   24 ar   
    45   26   25 1    
    46   46   26 1    
    47   47   26 1    
    48   48   26 1    
    49   42   27 1    
@<TRIPOS>SUBSTRUCTURE
     1 DH3188      1 GROUP   
@<TRIPOS>SET

