#    Name: 2zl9_VDA_1_ligand
#    Modification time : Tue Mar 25 10:49:09 2014

@<TRIPOS>MOLECULE
2zl9_VDA_1_ligand
   79    81     1     0     0
SMALL
NO_CHARGES


@<TRIPOS>ATOM
      1 O2         16.3410    8.5980   19.3420 O.3       1 VDA500      0.0000 
      2 C1         14.8080    6.0380   19.0690 C.3       1 VDA500      0.0000 
      3 C2         14.2840    7.4410   18.4440 C.3       1 VDA500      0.0000 
      4 C3         14.9110    8.7130   19.3480 C.3       1 VDA500      0.0000 
      5 C4         14.3940    8.5480   20.8990 C.3       1 VDA500      0.0000 
      6 C5         14.5510    7.1360   21.5440 C.2       1 VDA500      0.0000 
      7 C6         14.4340    6.9300   22.8700 C.2       1 VDA500      0.0000 
      8 C7         14.9500    5.8200   23.7210 C.2       1 VDA500      0.0000 
      9 C8         14.7270    5.7010   24.9460 C.2       1 VDA500      0.0000 
     10 C9         14.5130    6.9710   26.0340 C.3       1 VDA500      0.0000 
     11 C10        14.2540    5.9190   20.5420 C.3       1 VDA500      0.0000 
     12 C11        13.2560    6.8210   27.0190 C.3       1 VDA500      0.0000 
     13 C12        13.0920    5.2500   27.5770 C.3       1 VDA500      0.0000 
     14 C13        13.3020    4.0410   26.4080 C.3       1 VDA500      0.0000 
     15 C14        14.7280    4.3520   25.7280 C.3       1 VDA500      0.0000 
     16 C15        15.2170    2.8980   25.0260 C.3       1 VDA500      0.0000 
     17 C16        14.3660    1.8440   25.7870 C.2       1 VDA500      0.0000 
     18 C17        13.6240    2.5980   26.9440 C.2       1 VDA500      0.0000 
     19 C18        11.9380    4.1960   25.4170 C.3       1 VDA500      0.0000 
     20 C20        12.7980    2.1640   28.3430 C.3       1 VDA500      0.0000 
     21 C21        13.5490    0.7910   28.7320 C.3       1 VDA500      0.0000 
     22 S22        11.1240    2.2280   28.3240 S.3       1 VDA500      0.0000 
     23 C23        10.5510    1.2170   27.3460 C.3       1 VDA500      0.0000 
     24 C25         9.3350    0.3720   27.8180 C.3       1 VDA500      0.0000 
     25 O3         10.2420   -0.7520   28.3940 O.3       1 VDA500      0.0000 
     26 C26         8.2360    0.7570   28.5080 C.3       1 VDA500      0.0000 
     27 C27         9.1950   -0.3730   26.3910 C.2       1 VDA500      0.0000 
     28 O1         14.3890    4.9190   18.2980 O.3       1 VDA500      0.0000 
     29 O4         14.6250    7.6200   17.0800 O.3       1 VDA500      0.0000 
     30 C30        13.5380    8.1210   16.4560 C.3       1 VDA500      0.0000 
     31 C31        14.1280    8.2440   14.8780 C.3       1 VDA500      0.0000 
     32 O5         13.7680    6.9850   14.2920 O.3       1 VDA500      0.0000 
     33 C29         7.3870    1.9740   27.7060 C.3       1 VDA500      0.0000 
     34 C28         8.1670   -1.6240   26.2360 C.3       1 VDA500      0.0000 
     35 H          15.8784    6.1246   19.1426 H         1 VDA500      0.0000 
     36 H          13.2184    7.4874   18.6314 H         1 VDA500      0.0000 
     37 H          14.5275    9.5849   18.9626 H         1 VDA500      0.0000 
     38 H          13.3349    8.8439   20.9080 H         1 VDA500      0.0000 
     39 H          14.9469    9.2903   21.4929 H         1 VDA500      0.0000 
     40 H          13.8804    7.6678   23.4608 H         1 VDA500      0.0000 
     41 H          15.5414    5.1269   23.1556 H         1 VDA500      0.0000 
     42 H          14.4011    7.8686   25.4373 H         1 VDA500      0.0000 
     43 H          15.4249    7.0310   26.6163 H         1 VDA500      0.0000 
     44 H          14.6660    5.0017   21.0000 H         1 VDA500      0.0000 
     45 H          13.1583    5.7845   20.4961 H         1 VDA500      0.0000 
     46 H          12.3563    7.0593   26.4937 H         1 VDA500      0.0000 
     47 H          13.3949    7.4423   27.8774 H         1 VDA500      0.0000 
     48 H          12.0991    5.1400   27.9756 H         1 VDA500      0.0000 
     49 H          13.8324    5.0885   28.3402 H         1 VDA500      0.0000 
     50 H          15.4129    4.4503   26.6251 H         1 VDA500      0.0000 
     51 H          16.2274    2.7991   25.2409 H         1 VDA500      0.0000 
     52 H          14.9472    2.9553   24.0256 H         1 VDA500      0.0000 
     53 H          14.3069    0.9904   25.6097 H         1 VDA500      0.0000 
     54 H          13.1681    2.9123   29.0864 H         1 VDA500      0.0000 
     55 H          11.3577    0.5091   27.0380 H         1 VDA500      0.0000 
     56 H          10.2547    1.7443   26.4074 H         1 VDA500      0.0000 
     57 H           8.4246    1.2079   29.4973 H         1 VDA500      0.0000 
     58 H           7.4645   -0.0186   28.6525 H         1 VDA500      0.0000 
     59 H           9.7066   -0.0863   25.6463 H         1 VDA500      0.0000 
     60 H          13.2697    9.1192   16.6886 H         1 VDA500      0.0000 
     61 H          12.7060    7.4738   16.3496 H         1 VDA500      0.0000 
     62 H          15.1671    8.3913   14.9995 H         1 VDA500      0.0000 
     63 H          13.6201    9.0779   14.4746 H         1 VDA500      0.0000 
     64 H          11.8879    5.1002   24.9928 H         1 VDA500      0.0000 
     65 H          11.9390    3.5244   24.6761 H         1 VDA500      0.0000 
     66 H          11.0895    4.0654   25.9299 H         1 VDA500      0.0000 
     67 H          14.4790    0.9565   29.0602 H         1 VDA500      0.0000 
     68 H          13.0669    0.2959   29.4548 H         1 VDA500      0.0000 
     69 H          13.6200    0.1720   27.9498 H         1 VDA500      0.0000 
     70 H           7.9478    2.7908   27.5707 H         1 VDA500      0.0000 
     71 H           7.0780    1.6776   26.8023 H         1 VDA500      0.0000 
     72 H           6.5744    2.2575   28.2153 H         1 VDA500      0.0000 
     73 H           8.1722   -1.9962   25.3079 H         1 VDA500      0.0000 
     74 H           8.3998   -2.3748   26.8542 H         1 VDA500      0.0000 
     75 H           7.2248   -1.3579   26.4398 H         1 VDA500      0.0000 
     76 H          16.6567    9.2608   20.0211 H         1 VDA500      0.0000 
     77 H          10.6028   -0.3804   29.2494 H         1 VDA500      0.0000 
     78 H          13.4344    4.7700   18.5559 H         1 VDA500      0.0000 
     79 H          14.5310    6.7527   13.6889 H         1 VDA500      0.0000 
@<TRIPOS>BOND
     1    4    1 1    
     2   76    1 1    
     3    3    2 1    
     4   11    2 1    
     5   28    2 1    
     6   35    2 1    
     7    4    3 1    
     8   29    3 1    
     9   36    3 1    
    10    5    4 1    
    11   37    4 1    
    12    6    5 1    
    13   38    5 1    
    14   39    5 1    
    15    7    6 2    
    16   11    6 1    
    17    8    7 1    
    18   40    7 1    
    19    9    8 2    
    20   41    8 1    
    21   10    9 1    
    22   15    9 1    
    23   12   10 1    
    24   42   10 1    
    25   43   10 1    
    26   44   11 1    
    27   45   11 1    
    28   13   12 1    
    29   46   12 1    
    30   47   12 1    
    31   14   13 1    
    32   48   13 1    
    33   49   13 1    
    34   15   14 1    
    35   18   14 1    
    36   19   14 1    
    37   16   15 1    
    38   50   15 1    
    39   17   16 1    
    40   51   16 1    
    41   52   16 1    
    42   18   17 2    
    43   53   17 1    
    44   20   18 1    
    45   64   19 1    
    46   65   19 1    
    47   66   19 1    
    48   21   20 1    
    49   22   20 1    
    50   54   20 1    
    51   67   21 1    
    52   68   21 1    
    53   69   21 1    
    54   23   22 1    
    55   24   23 1    
    56   55   23 1    
    57   56   23 1    
    58   25   24 1    
    59   26   24 1    
    60   27   24 1    
    61   77   25 1    
    62   33   26 1    
    63   57   26 1    
    64   58   26 1    
    65   34   27 1    
    66   59   27 1    
    67   78   28 1    
    68   30   29 1    
    69   31   30 1    
    70   60   30 1    
    71   61   30 1    
    72   32   31 1    
    73   62   31 1    
    74   63   31 1    
    75   79   32 1    
    76   70   33 1    
    77   71   33 1    
    78   72   33 1    
    79   73   34 1    
    80   74   34 1    
    81   75   34 1    
@<TRIPOS>SUBSTRUCTURE
     1 VDA500      1 GROUP   
@<TRIPOS>SET

