#    Name: 1guz_NAD_1_INTS_M
#    Modification time : Tue Mar 25 03:59:36 2014

@<TRIPOS>MOLECULE
1guz_NAD_1_INTS_M
   88     0     9     0     0
SMALL
NO_CHARGES


@<TRIPOS>ATOM
      1 N          39.8050   51.2490   44.6815 N.am      2 SEC2        0.0000 
      2 N          40.5660   49.9060   44.9550 N.am      8 SEL2        0.0000 
      3 N          39.0440   52.5920   44.4080 N.am      5 SEP2        0.0000 
      4 CA         40.0130   51.7685   50.8185 C.3       3 GLC5        0.0000 
      5 CA         41.0240   50.3660   49.6070 C.3       9 GLL5        0.0000 
      6 CA         39.0020   53.1710   52.0300 C.3       6 GLP5        0.0000 
      7 CA         41.4075   51.7300   47.8970 C.3       3 GLC5        0.0000 
      8 CA         42.5600   50.5420   49.3140 C.3       9 GLL5        0.0000 
      9 CA         40.2550   52.9180   46.4800 C.3       6 GLP5        0.0000 
     10 O          42.6640   52.7425   50.0975 O.2       1 ALC1        0.0000 
     11 O          42.8090   51.9950   48.9870 O.2       7 ALL1        0.0000 
     12 O          42.5190   53.4900   51.2080 O.2       4 ALP1        0.0000 
     13 O          44.3940   51.8145   51.6375 O.2       1 ALC1        0.0000 
     14 O          44.5200   50.6390   50.8460 O.2       7 ALL1        0.0000 
     15 O          44.2680   52.9900   52.4290 O.2       4 ALP1        0.0000 
     16 CA         40.6055   51.7080   51.8170 C.3       3 GLC5        0.0000 
     17 CA         42.2090   50.2450   51.6040 C.3       9 GLL5        0.0000 
     18 CA         44.1140   50.1700   56.1570 C.3       3 GLC5        0.0000 
     19 CA         42.4220   48.8930   56.4200 C.3       9 GLL5        0.0000 
     20 CA         45.8060   51.4470   55.8940 C.3       6 GLP5        0.0000 
     21 CA         40.5435   49.2425   57.5260 C.3       3 GLC5        0.0000 
     22 CA         38.6650   49.5920   58.6320 C.3       6 GLP5        0.0000 
     23 O          42.5790   48.1805   58.7515 O.2       1 ALC1        0.0000 
     24 O          42.6950   47.9610   57.2970 O.2       7 ALL1        0.0000 
     25 O          42.4630   48.4000   60.2060 O.2       4 ALP1        0.0000 
     26 CA         39.7675   51.8955   56.2045 C.3       3 GLC5        0.0000 
     27 CA         41.6700   51.1810   55.9470 C.3       9 GLL5        0.0000 
     28 CA         37.8650   52.6100   56.4620 C.3       6 GLP5        0.0000 
     29 CA         42.2290   53.0535   55.1310 C.3       3 GLC5        0.0000 
     30 CA         42.7880   54.9260   54.3150 C.3       6 GLP5        0.0000 
     31 CA         43.7380   51.3140   55.9205 C.3       3 GLC5        0.0000 
     32 CA         40.0765   50.0760   55.2535 C.3       3 GLC5        0.0000 
     33 CA         38.4830   48.9710   54.5600 C.3       6 GLP5        0.0000 
     34 CA         40.1675   50.3865   57.2895 C.3       3 GLC5        0.0000 
     35 N          36.7190   51.2135   45.3440 N.am      2 SEC2        0.0000 
     36 N          37.3080   50.1050   45.9850 N.am      8 SEL2        0.0000 
     37 N          36.1300   52.3220   44.7030 N.am      5 SEP2        0.0000 
     38 CA         35.4145   48.9645   46.3040 C.3       3 GLC5        0.0000 
     39 CA         36.5780   47.8660   47.8310 C.3       9 GLL5        0.0000 
     40 CA         34.2510   50.0630   44.7770 C.3       6 GLP5        0.0000 
     41 CA         38.3860   44.7420   48.2365 C.3       3 GLC5        0.0000 
     42 CA         36.3800   45.2500   48.0480 C.3       9 GLL5        0.0000 
     43 CA         40.3920   44.2340   48.4250 C.3       6 GLP5        0.0000 
     44 CA         37.8880   44.9235   46.8910 C.3       3 GLC5        0.0000 
     45 CA         39.3960   44.5970   45.7340 C.3       6 GLP5        0.0000 
     46 N          38.1655   44.4430   49.4920 N.am      2 SEC2        0.0000 
     47 N          36.4660   44.4060   49.2190 N.am      8 SEL2        0.0000 
     48 N          39.8650   44.4800   49.7650 N.am      5 SEP2        0.0000 
     49 CA         36.7165   43.6385   46.4280 C.3       3 GLC5        0.0000 
     50 CA         35.3480   44.7100   47.0310 C.3       9 GLL5        0.0000 
     51 CA         38.0850   42.5670   45.8250 C.3       6 GLP5        0.0000 
     52 CA         33.6480   45.2955   49.7030 C.3       3 GLC5        0.0000 
     53 CA         34.0260   45.3410   47.5770 C.3       9 GLL5        0.0000 
     54 CA         33.2700   45.2500   51.8290 C.3       6 GLP5        0.0000 
     55 CA         33.6480   43.3075   48.3510 C.3       3 GLC5        0.0000 
     56 CA         33.2700   41.2740   49.1250 C.3       6 GLP5        0.0000 
     57 N          27.5875   43.4080   46.0160 N.am      2 SEC2        0.0000 
     58 N          28.2780   44.6010   45.8980 N.am      8 SEL2        0.0000 
     59 N          26.8970   42.2150   46.1340 N.am      5 SEP2        0.0000 
     60 O          30.0725   45.7715   48.9105 O.2       1 ALC1        0.0000 
     61 O          28.8030   45.6410   47.8940 O.2       7 ALL1        0.0000 
     62 O          31.3420   45.9020   49.9270 O.2       4 ALP1        0.0000 
     63 O          27.5875   45.8645   48.5120 O.2       1 ALC1        0.0000 
     64 O          26.3720   46.0880   49.1300 O.2       4 ALP1        0.0000 
     65 CA         29.0450   46.1315   43.8530 C.3       3 GLC5        0.0000 
     66 CA         30.7240   46.1480   44.8250 C.3       9 GLL5        0.0000 
     67 CA         27.3660   46.1150   42.8810 C.3       6 GLP5        0.0000 
     68 CA         30.3450   47.8390   44.1425 C.3       3 GLC5        0.0000 
     69 CA         29.9660   49.5300   43.4600 C.3       6 GLP5        0.0000 
     70 CA         31.1060   47.5890   43.3600 C.3       3 GLC5        0.0000 
     71 CA         32.0830   46.4410   44.5330 C.3       9 GLL5        0.0000 
     72 CA         30.1290   48.7370   42.1870 C.3       6 GLP5        0.0000 
     73 CA         40.4615   51.3807   47.8347 C.3       3 GLC5        0.0000 
     74 CA         40.3120   49.3210   48.7720 C.3       9 GLL5        0.0000 
     75 CA         44.1740   50.0480   54.5122 C.3       3 GLC5        0.0000 
     76 CA         42.2290   49.8110   54.0810 C.3       9 GLL5        0.0000 
     77 CA         45.9550   50.8320   54.5190 C.3       6 GLP5        0.0000 
     78 CA         41.0558   47.4380   55.9745 C.3       3 GLC5        0.0000 
     79 CA         42.5570   48.7170   54.9300 C.3       9 GLL5        0.0000 
     80 CA         39.6220   46.0710   56.2740 C.3       6 GLP5        0.0000 
     81 CA         40.4211   49.1395   54.7190 C.3       3 GLC5        0.0000 
     82 CA         31.0330   47.0015   47.7485 C.3       3 GLC5        0.0000 
     83 CA         31.5580   45.2830   47.0230 C.3       9 GLL5        0.0000 
     84 CA         31.0200   48.5920   48.9050 C.3       6 GLP5        0.0000 
     85 CA         29.0320   47.1298   46.0985 C.3       3 GLC5        0.0000 
     86 CA         30.5340   45.5390   46.1610 C.3       9 GLL5        0.0000 
     87 CA         27.4350   48.4160   46.7040 C.3       6 GLP5        0.0000 
     88 CA         33.4297   48.1942   44.8595 C.3       3 GLC5        0.0000 
@<TRIPOS>BOND
@<TRIPOS>SUBSTRUCTURE
     1 ALC1       10 GROUP        1 X    ALC  0     ROOT ALC X 1
     2 SEC2        1 GROUP        1 X    SEC  0     **** SEC X 2
     3 GLC5        4 GROUP        1 X    GLC  0     **** GLC X 6
     4 ALP1       12 GROUP        1 Y    ALP  0     ROOT ALP Y 8
     5 SEP2        3 GROUP        1 Y    SEP  0     **** SEP Y 9
     6 GLP5        6 GROUP        1 Y    GLP  0     **** GLP Y 13
     7 ALL1       11 GROUP        1 Z    ALL  0     ROOT ALL Z 15
     8 SEL2        2 GROUP        1 Z    SEL  0     **** SEL Z 16
     9 GLL5        5 GROUP        1 Z    GLL  0     **** GLL Z 20
@<TRIPOS>SET

