#    Name: 1guz_NAD_1_ligand
#    Modification time : Tue Mar 25 03:59:36 2014

@<TRIPOS>MOLECULE
1guz_NAD_1_ligand
   70    74     1     0     0
SMALL
NO_CHARGES


@<TRIPOS>ATOM
      1 PA         40.4430   48.8920   46.0950 P.3       1 NAD1306     0.0000 
      2 O1A        41.4480   47.8350   46.2600 O.co2     1 NAD1306     0.0000 
      3 O2A        40.5660   49.9060   44.9550 O.co2     1 NAD1306     0.0000 
      4 O5B        40.3300   49.8490   47.3950 O.3       1 NAD1306     0.0000 
      5 C5B        40.3120   49.3210   48.7720 C.3       1 NAD1306     0.0000 
      6 C4B        41.0240   50.3660   49.6070 C.3       1 NAD1306     0.0000 
      7 O4B        41.0080   49.8140   51.0050 O.3       1 NAD1306     0.0000 
      8 C3B        42.5600   50.5420   49.3140 C.3       1 NAD1306     0.0000 
      9 O3B        42.8090   51.9950   48.9870 O.3       1 NAD1306     0.0000 
     10 C2B        43.3290   50.1020   50.5220 C.3       1 NAD1306     0.0000 
     11 O2B        44.5200   50.6390   50.8460 O.3       1 NAD1306     0.0000 
     12 C1B        42.2090   50.2450   51.6040 C.3       1 NAD1306     0.0000 
     13 N9A        42.4450   49.3750   52.7370 N.pl3     1 NAD1306     0.0000 
     14 C8A        42.8720   48.0880   52.9300 C.2       1 NAD1306     0.0000 
     15 N7A        42.9500   47.6720   54.1880 N.2       1 NAD1306     0.0000 
     16 C5A        42.5570   48.7170   54.9300 C.ar      1 NAD1306     0.0000 
     17 C6A        42.4220   48.8930   56.4200 C.ar      1 NAD1306     0.0000 
     18 N6A        42.6950   47.9610   57.2970 N.pl3     1 NAD1306     0.0000 
     19 N1A        41.9810   50.1450   56.7390 N.ar      1 NAD1306     0.0000 
     20 C2A        41.6700   51.1810   55.9470 C.ar      1 NAD1306     0.0000 
     21 N3A        41.7800   51.0670   54.5280 N.ar      1 NAD1306     0.0000 
     22 C4A        42.2290   49.8110   54.0810 C.ar      1 NAD1306     0.0000 
     23 O3         39.0110   48.3090   45.9950 O.3       1 NAD1306     0.0000 
     24 PN         37.5490   48.6700   45.5870 P.3       1 NAD1306     0.0000 
     25 O1N        37.3330   48.3580   44.1580 O.co2     1 NAD1306     0.0000 
     26 O2N        37.3080   50.1050   45.9850 O.co2     1 NAD1306     0.0000 
     27 O5D        36.5150   47.6970   46.3570 O.3       1 NAD1306     0.0000 
     28 C5D        36.5780   47.8660   47.8310 C.3       1 NAD1306     0.0000 
     29 C4D        35.9080   46.6860   48.4730 C.3       1 NAD1306     0.0000 
     30 O4D        34.4430   46.6550   48.1300 O.3       1 NAD1306     0.0000 
     31 C3D        36.3800   45.2500   48.0480 C.3       1 NAD1306     0.0000 
     32 O3D        36.4660   44.4060   49.2190 O.3       1 NAD1306     0.0000 
     33 C2D        35.3480   44.7100   47.0310 C.3       1 NAD1306     0.0000 
     34 O2D        35.2790   43.3110   46.8960 O.3       1 NAD1306     0.0000 
     35 C1D        34.0260   45.3410   47.5770 C.3       1 NAD1306     0.0000 
     36 N1N        32.8520   45.6070   46.6440 N.pl3     1 NAD1306     0.0000 
     37 C2N        31.5580   45.2830   47.0230 C.ar      1 NAD1306     0.0000 
     38 C3N        30.5340   45.5390   46.1610 C.ar      1 NAD1306     0.0000 
     39 C7N        29.1080   45.1900   46.5730 C.2       1 NAD1306     0.0000 
     40 O7N        28.2780   44.6010   45.8980 O.2       1 NAD1306     0.0000 
     41 N7N        28.8030   45.6410   47.8940 N.am      1 NAD1306     0.0000 
     42 C4N        30.7240   46.1480   44.8250 C.ar      1 NAD1306     0.0000 
     43 C5N        32.0830   46.4410   44.5330 C.ar      1 NAD1306     0.0000 
     44 C6N        33.1340   46.2100   45.3510 C.ar      1 NAD1306     0.0000 
     45 H          40.8493   48.3940   48.8331 H         1 NAD1306     0.0000 
     46 H          39.3049   49.2118   49.1265 H         1 NAD1306     0.0000 
     47 H          40.5481   51.2859   49.5934 H         1 NAD1306     0.0000 
     48 H          42.7940   49.9302   48.4736 H         1 NAD1306     0.0000 
     49 H          43.3735   48.9612   50.4120 H         1 NAD1306     0.0000 
     50 H          42.1605   51.2638   51.8918 H         1 NAD1306     0.0000 
     51 H          43.1124   47.4971   52.1354 H         1 NAD1306     0.0000 
     52 H          43.0041   47.0851   56.9265 H         1 NAD1306     0.0000 
     53 H          42.5695   48.2101   58.2573 H         1 NAD1306     0.0000 
     54 H          41.3444   52.0856   56.3292 H         1 NAD1306     0.0000 
     55 H          36.0649   48.7775   48.1248 H         1 NAD1306     0.0000 
     56 H          37.6131   47.9162   48.1574 H         1 NAD1306     0.0000 
     57 H          35.9762   46.7311   49.5545 H         1 NAD1306     0.0000 
     58 H          37.3191   45.3596   47.5530 H         1 NAD1306     0.0000 
     59 H          35.5428   45.2383   46.0963 H         1 NAD1306     0.0000 
     60 H          33.6947   44.7393   48.4248 H         1 NAD1306     0.0000 
     61 H          31.3856   44.8573   47.9410 H         1 NAD1306     0.0000 
     62 H          27.8678   45.4794   48.2092 H         1 NAD1306     0.0000 
     63 H          29.5503   46.0803   48.3925 H         1 NAD1306     0.0000 
     64 H          29.9838   46.3156   44.2379 H         1 NAD1306     0.0000 
     65 H          32.2629   46.8831   43.5744 H         1 NAD1306     0.0000 
     66 H          34.0886   46.4283   45.1203 H         1 NAD1306     0.0000 
     67 H          42.6781   52.4808   49.8512 H         1 NAD1306     0.0000 
     68 H          44.3037   51.5392   51.2237 H         1 NAD1306     0.0000 
     69 H          36.0850   43.5268   48.9328 H         1 NAD1306     0.0000 
     70 H          35.8437   42.9513   47.6388 H         1 NAD1306     0.0000 
@<TRIPOS>BOND
     1    2    1 ar   
     2    3    1 ar   
     3    4    1 1    
     4   23    1 1    
     5    5    4 1    
     6    6    5 1    
     7   45    5 1    
     8   46    5 1    
     9    7    6 1    
    10    8    6 1    
    11   47    6 1    
    12   12    7 1    
    13    9    8 1    
    14   10    8 1    
    15   48    8 1    
    16   67    9 1    
    17   11   10 1    
    18   12   10 1    
    19   49   10 1    
    20   68   11 1    
    21   13   12 1    
    22   50   12 1    
    23   14   13 1    
    24   22   13 1    
    25   15   14 2    
    26   51   14 1    
    27   16   15 1    
    28   17   16 ar   
    29   22   16 ar   
    30   18   17 1    
    31   19   17 ar   
    32   52   18 1    
    33   53   18 1    
    34   20   19 ar   
    35   21   20 ar   
    36   54   20 1    
    37   22   21 ar   
    38   24   23 1    
    39   25   24 ar   
    40   26   24 ar   
    41   27   24 1    
    42   28   27 1    
    43   29   28 1    
    44   55   28 1    
    45   56   28 1    
    46   30   29 1    
    47   31   29 1    
    48   57   29 1    
    49   35   30 1    
    50   32   31 1    
    51   33   31 1    
    52   58   31 1    
    53   69   32 1    
    54   34   33 1    
    55   35   33 1    
    56   59   33 1    
    57   70   34 1    
    58   36   35 1    
    59   60   35 1    
    60   37   36 ar   
    61   44   36 ar   
    62   38   37 ar   
    63   61   37 1    
    64   39   38 1    
    65   42   38 ar   
    66   40   39 2    
    67   41   39 am   
    68   62   41 1    
    69   63   41 1    
    70   43   42 ar   
    71   64   42 1    
    72   44   43 ar   
    73   65   43 1    
    74   66   44 1    
@<TRIPOS>SUBSTRUCTURE
     1 NAD1306     1 GROUP   
@<TRIPOS>SET

