#    Name: 1xo2_FSE_1_INTS_M
#    Modification time : Tue Mar 25 10:26:48 2014

@<TRIPOS>MOLECULE
1xo2_FSE_1_INTS_M
   57     0     9     0     0
SMALL
NO_CHARGES


@<TRIPOS>ATOM
      1 CA         -2.1025   35.6320  138.7045 C.3       3 GLC5        0.0000 
      2 CA         -1.7940   37.7850  138.5820 C.3       9 GLL5        0.0000 
      3 CA         -2.4110   33.4790  138.8270 C.3       6 GLP5        0.0000 
      4 CA          2.0290   37.8135  141.9620 C.3       3 GLC5        0.0000 
      5 CA          1.7430   36.5530  140.8980 C.3       9 GLL5        0.0000 
      6 CA          2.3150   39.0740  143.0260 C.3       6 GLP5        0.0000 
      7 CA          1.1940   38.5285  140.5650 C.3       3 GLC5        0.0000 
      8 CA          1.8710   37.0080  139.5440 C.3       9 GLL5        0.0000 
      9 CA          0.5170   40.0490  141.5860 C.3       6 GLP5        0.0000 
     10 CA          4.2070   39.4040  135.6695 C.3       3 GLC5        0.0000 
     11 CA          3.9340   37.6800  136.3640 C.3       9 GLL5        0.0000 
     12 CA          4.4800   41.1280  134.9750 C.3       6 GLP5        0.0000 
     13 CA          3.4095   39.2890  138.4160 C.3       3 GLC5        0.0000 
     14 CA          2.8290   37.5000  137.2090 C.3       9 GLL5        0.0000 
     15 CA          3.9900   41.0780  139.6230 C.3       6 GLP5        0.0000 
     16 N           0.4820   36.0195  144.3695 N.am      2 SEC2        0.0000 
     17 N           0.3500   36.0890  142.8010 N.am      8 SEL2        0.0000 
     18 N           0.6140   35.9500  145.9380 N.am      5 SEP2        0.0000 
     19 N           5.0950   37.5895  134.0725 N.am      2 SEC2        0.0000 
     20 N           3.8500   38.0040  134.9950 N.am      8 SEL2        0.0000 
     21 N           6.3400   37.1750  133.1500 N.am      5 SEP2        0.0000 
     22 N           6.3250   37.4555  134.6330 N.am      2 SEC2        0.0000 
     23 N           6.3100   37.7360  136.1160 N.am      8 SEL2        0.0000 
     24 N          -3.8955   39.1905  137.5865 N.am      2 SEC2        0.0000 
     25 N          -4.2200   38.0240  138.2600 N.am      8 SEL2        0.0000 
     26 N          -3.5710   40.3570  136.9130 N.am      5 SEP2        0.0000 
     27 O          -3.9865   36.7925  137.6435 O.2       1 ALC1        0.0000 
     28 O          -4.2200   38.0240  138.2600 O.2       7 ALL1        0.0000 
     29 O          -3.7530   35.5610  137.0270 O.2       4 ALP1        0.0000 
     30 CA         -3.5767   35.5897  139.4038 C.3       3 GLC5        0.0000 
     31 CA         -3.1420   37.7120  139.1040 C.3       9 GLL5        0.0000 
     32 CA         -3.9110   33.6690  139.0200 C.3       6 GLP5        0.0000 
     33 CA         -3.8293   37.8770  142.6015 C.3       3 GLC5        0.0000 
     34 CA         -3.3430   37.3090  140.4710 C.3       9 GLL5        0.0000 
     35 CA         -4.8630   38.6360  144.3140 C.3       6 GLP5        0.0000 
     36 CA         -0.5068   38.4892  141.3258 C.3       3 GLC5        0.0000 
     37 CA         -0.8130   36.9320  140.8240 C.3       9 GLL5        0.0000 
     38 CA         -1.3594   35.3839  140.1844 C.3       3 GLC5        0.0000 
     39 CA         -0.6730   37.3920  139.4240 C.3       9 GLL5        0.0000 
     40 CA         -1.6170   33.6070  140.1240 C.3       6 GLP5        0.0000 
     41 CA         -0.3583   38.8188  140.2945 C.3       3 GLC5        0.0000 
     42 CA         -3.1666   39.3539  139.7159 C.3       3 GLC5        0.0000 
     43 CA         -3.8150   41.0600  140.2470 C.3       6 GLP5        0.0000 
     44 CA          2.4000   34.9472  140.8210 C.3       3 GLC5        0.0000 
     45 CA          2.9930   33.1140  141.4210 C.3       6 GLP5        0.0000 
     46 CA          5.7953   35.7647  140.0385 C.3       3 GLC5        0.0000 
     47 CA          4.3630   37.0660  139.1300 C.3       9 GLL5        0.0000 
     48 CA          6.6810   34.3690  141.3820 C.3       6 GLP5        0.0000 
     49 CA          4.2828   39.1345  139.1004 C.3       3 GLC5        0.0000 
     50 CA          5.4560   37.2550  138.2600 C.3       9 GLL5        0.0000 
     51 CA          5.5815   39.1570  136.6305 C.3       3 GLC5        0.0000 
     52 CA          5.8190   40.9030  135.6830 C.3       6 GLP5        0.0000 
     53 CA          5.2760   36.3152  135.4705 C.3       3 GLC5        0.0000 
     54 CA          5.2320   37.5670  136.8960 C.3       9 GLL5        0.0000 
     55 CA          5.9690   35.0070  134.3110 C.3       6 GLP5        0.0000 
     56 CA          1.8345   35.4415  137.5549 C.3       3 GLC5        0.0000 
     57 CA          1.0300   33.5840  136.9540 C.3       6 GLP5        0.0000 
@<TRIPOS>BOND
@<TRIPOS>SUBSTRUCTURE
     1 ALC1       27 GROUP        1 X    ALC  0     ROOT ALC X 1
     2 SEC2       16 GROUP        1 X    SEC  0     **** SEC X 2
     3 GLC5        1 GROUP        1 X    GLC  0     **** GLC X 6
     4 ALP1       29 GROUP        1 Y    ALP  0     ROOT ALP Y 8
     5 SEP2       18 GROUP        1 Y    SEP  0     **** SEP Y 9
     6 GLP5        3 GROUP        1 Y    GLP  0     **** GLP Y 13
     7 ALL1       28 GROUP        1 Z    ALL  0     ROOT ALL Z 15
     8 SEL2       17 GROUP        1 Z    SEL  0     **** SEL Z 16
     9 GLL5        2 GROUP        1 Z    GLL  0     **** GLL Z 20
@<TRIPOS>SET

