#    Name: 1xo2_FSE_1_ligand
#    Modification time : Tue Mar 25 10:26:48 2014

@<TRIPOS>MOLECULE
1xo2_FSE_1_ligand
   31    33     1     0     0
SMALL
NO_CHARGES


@<TRIPOS>ATOM
      1 C6         -3.3430   37.3090  140.4710 C.ar      1 FSE309      0.0000 
      2 C5         -2.2480   36.9270  141.3070 C.ar      1 FSE309      0.0000 
      3 C10        -0.8130   36.9320  140.8240 C.ar      1 FSE309      0.0000 
      4 C9         -0.6730   37.3920  139.4240 C.ar      1 FSE309      0.0000 
      5 C8         -1.7940   37.7850  138.5820 C.ar      1 FSE309      0.0000 
      6 C7         -3.1420   37.7120  139.1040 C.ar      1 FSE309      0.0000 
      7 C4          0.3860   36.5050  141.5920 C.2       1 FSE309      0.0000 
      8 C3          1.7430   36.5530  140.8980 C.2       1 FSE309      0.0000 
      9 C2          1.8710   37.0080  139.5440 C.2       1 FSE309      0.0000 
     10 C1'         3.0270   37.1880  138.6610 C.ar      1 FSE309      0.0000 
     11 C6'         4.3630   37.0660  139.1300 C.ar      1 FSE309      0.0000 
     12 C5'         5.4560   37.2550  138.2600 C.ar      1 FSE309      0.0000 
     13 C4'         5.2320   37.5670  136.8960 C.ar      1 FSE309      0.0000 
     14 C3'         3.9340   37.6800  136.3640 C.ar      1 FSE309      0.0000 
     15 C2'         2.8290   37.5000  137.2090 C.ar      1 FSE309      0.0000 
     16 O1          0.6840   37.4160  138.8670 O.3       1 FSE309      0.0000 
     17 O4          0.3500   36.0890  142.8010 O.2       1 FSE309      0.0000 
     18 O3'         3.8500   38.0040  134.9950 O.3       1 FSE309      0.0000 
     19 O4'         6.3100   37.7360  136.1160 O.3       1 FSE309      0.0000 
     20 O3          2.8920   36.1430  141.6130 O.3       1 FSE309      0.0000 
     21 O7         -4.2200   38.0240  138.2600 O.3       1 FSE309      0.0000 
     22 H          -4.2951   37.2970  140.8502 H         1 FSE309      0.0000 
     23 H          -2.4035   36.6339  142.2727 H         1 FSE309      0.0000 
     24 H          -1.6286   38.1049  137.6433 H         1 FSE309      0.0000 
     25 H           4.5292   36.8370  140.1167 H         1 FSE309      0.0000 
     26 H           6.4114   37.1677  138.6099 H         1 FSE309      0.0000 
     27 H           1.8758   37.5727  136.8760 H         1 FSE309      0.0000 
     28 H           3.4176   38.9053  134.9685 H         1 FSE309      0.0000 
     29 H           6.9206   38.3269  136.6432 H         1 FSE309      0.0000 
     30 H           2.5597   35.9159  142.5284 H         1 FSE309      0.0000 
     31 H          -4.2705   37.2633  137.6129 H         1 FSE309      0.0000 
@<TRIPOS>BOND
     1    2    1 ar   
     2    6    1 ar   
     3   22    1 1    
     4    3    2 ar   
     5   23    2 1    
     6    4    3 ar   
     7    7    3 1    
     8    5    4 ar   
     9   16    4 1    
    10    6    5 ar   
    11   24    5 1    
    12   21    6 1    
    13    8    7 1    
    14   17    7 2    
    15    9    8 2    
    16   20    8 1    
    17   10    9 1    
    18   16    9 1    
    19   11   10 ar   
    20   15   10 ar   
    21   12   11 ar   
    22   25   11 1    
    23   13   12 ar   
    24   26   12 1    
    25   14   13 ar   
    26   19   13 1    
    27   15   14 ar   
    28   18   14 1    
    29   27   15 1    
    30   28   18 1    
    31   29   19 1    
    32   30   20 1    
    33   31   21 1    
@<TRIPOS>SUBSTRUCTURE
     1 FSE309      1 GROUP   
@<TRIPOS>SET

