#    Name: 4dhf_0K6_2_INTS_M
#    Modification time : Tue Mar 25 09:43:48 2014

@<TRIPOS>MOLECULE
4dhf_0K6_2_INTS_M
   63     0     9     0     0
SMALL
NO_CHARGES


@<TRIPOS>ATOM
      1 CA        -36.1220   43.3640  -43.4435 C.3       3 GLC5        0.0000 
      2 CA        -34.3380   42.2980  -43.9520 C.3       9 GLL5        0.0000 
      3 CA        -37.9060   44.4300  -42.9350 C.3       6 GLP5        0.0000 
      4 CA        -37.7190   42.4090  -40.6255 C.3       3 GLC5        0.0000 
      5 CA        -35.5250   42.5750  -40.5550 C.3       9 GLL5        0.0000 
      6 CA        -39.9130   42.2430  -40.6960 C.3       6 GLP5        0.0000 
      7 CA        -33.6490   39.0390  -41.6580 C.3       3 GLC5        0.0000 
      8 CA        -33.7210   40.9330  -40.6730 C.3       9 GLL5        0.0000 
      9 CA        -33.5770   37.1450  -42.6430 C.3       6 GLP5        0.0000 
     10 CA        -37.9270   40.9905  -43.1340 C.3       3 GLC5        0.0000 
     11 CA        -35.7330   40.7410  -43.2670 C.3       9 GLL5        0.0000 
     12 CA        -40.1210   41.2400  -43.0010 C.3       6 GLP5        0.0000 
     13 CA        -36.8195   42.5855  -43.1010 C.3       3 GLC5        0.0000 
     14 CA        -38.3355   40.5900  -44.1960 C.3       3 GLC5        0.0000 
     15 CA        -36.5500   39.9400  -45.3910 C.3       9 GLL5        0.0000 
     16 CA        -37.8275   39.1110  -46.7530 C.3       3 GLC5        0.0000 
     17 CA        -39.1050   38.2820  -48.1150 C.3       6 GLP5        0.0000 
     18 CA        -36.3345   37.8030  -45.4900 C.3       3 GLC5        0.0000 
     19 CA        -36.1190   35.6660  -45.5890 C.3       6 GLP5        0.0000 
     20 N         -37.6955   37.9365  -45.5995 N.am      2 SEC2        0.0000 
     21 N         -37.3070   39.0740  -44.7110 N.am      8 SEL2        0.0000 
     22 N         -38.0840   36.7990  -46.4880 N.am      5 SEP2        0.0000 
     23 CA        -38.7115   40.1325  -43.1775 C.3       3 GLC5        0.0000 
     24 CA        -37.3020   39.0250  -43.3540 C.3       9 GLL5        0.0000 
     25 CA        -36.7105   37.3455  -44.4715 C.3       3 GLC5        0.0000 
     26 CA        -35.4395   38.0850  -42.9985 C.3       3 GLC5        0.0000 
     27 O         -38.1600   36.8295  -43.2385 O.2       1 ALC1        0.0000 
     28 O         -38.0850   38.0980  -42.7360 O.2       7 ALL1        0.0000 
     29 O         -38.2350   35.5610  -43.7410 O.2       4 ALP1        0.0000 
     30 N         -41.7650   38.4650  -37.4435 N.am      2 SEC2        0.0000 
     31 N         -40.4050   37.5100  -37.5820 N.am      8 SEL2        0.0000 
     32 N         -43.1250   39.4200  -37.3050 N.am      5 SEP2        0.0000 
     33 N         -41.7910   37.6305  -38.2385 N.am      2 SEC2        0.0000 
     34 N         -43.1770   37.7510  -38.8950 N.am      5 SEP2        0.0000 
     35 CA        -34.6873   43.2680  -46.0553 C.3       3 GLC5        0.0000 
     36 CA        -34.7730   44.4900  -47.5590 C.3       6 GLP5        0.0000 
     37 CA        -33.7687   40.2965  -44.5773 C.3       3 GLC5        0.0000 
     38 CA        -34.8650   41.7940  -45.1510 C.3       9 GLL5        0.0000 
     39 CA        -32.9360   38.5470  -44.6030 C.3       6 GLP5        0.0000 
     40 CA        -35.5478   44.1163  -41.4840 C.3       3 GLC5        0.0000 
     41 CA        -34.4360   42.0360  -41.4650 C.3       9 GLL5        0.0000 
     42 CA        -36.1150   45.9270  -41.9580 C.3       6 GLP5        0.0000 
     43 CA        -36.2410   43.1690  -38.6335 C.3       3 GLC5        0.0000 
     44 CA        -37.2650   43.8530  -37.4020 C.3       6 GLP5        0.0000 
     45 CA        -33.3080   39.3848  -39.5517 C.3       3 GLC5        0.0000 
     46 CA        -34.0730   41.1360  -39.2040 C.3       9 GLL5        0.0000 
     47 CA        -32.7190   37.7350  -39.1650 C.3       6 GLP5        0.0000 
     48 CA        -37.4520   41.4996  -45.8272 C.3       3 GLC5        0.0000 
     49 CA        -35.7430   40.7950  -44.6530 C.3       9 GLL5        0.0000 
     50 CA        -38.9770   42.3820  -46.5080 C.3       6 GLP5        0.0000 
     51 CA        -34.7270   40.3911  -46.7022 C.3       3 GLC5        0.0000 
     52 CA        -33.5270   40.1650  -48.2580 C.3       6 GLP5        0.0000 
     53 CA        -34.5400   39.4505  -44.6393 C.3       3 GLC5        0.0000 
     54 CA        -38.8850   32.7673  -40.2305 C.3       3 GLC5        0.0000 
     55 CA        -39.7430   34.3400  -39.1360 C.3       9 GLL5        0.0000 
     56 CA        -38.1810   31.8450  -41.7030 C.3       6 GLP5        0.0000 
     57 CA        -37.9650   34.2818  -39.5765 C.3       3 GLC5        0.0000 
     58 CA        -39.4350   33.0390  -38.3800 C.3       9 GLL5        0.0000 
     59 CA        -36.3410   34.8740  -40.3950 C.3       6 GLP5        0.0000 
     60 CA        -39.9898   39.0564  -40.7801 C.3       3 GLC5        0.0000 
     61 CA        -39.2170   37.1710  -40.7860 C.3       9 GLL5        0.0000 
     62 CA        -41.4520   40.3450  -41.0610 C.3       6 GLP5        0.0000 
     63 CA        -37.4343   36.3209  -40.4471 C.3       3 GLC5        0.0000 
@<TRIPOS>BOND
@<TRIPOS>SUBSTRUCTURE
     1 ALC1       27 GROUP        1 X    ALC  0     ROOT ALC X 1
     2 SEC2       20 GROUP        1 X    SEC  0     **** SEC X 2
     3 GLC5        1 GROUP        1 X    GLC  0     **** GLC X 6
     4 ALP1       29 GROUP        1 Y    ALP  0     ROOT ALP Y 8
     5 SEP2       22 GROUP        1 Y    SEP  0     **** SEP Y 9
     6 GLP5        3 GROUP        1 Y    GLP  0     **** GLP Y 13
     7 ALL1       28 GROUP        1 Z    ALL  0     ROOT ALL Z 15
     8 SEL2       21 GROUP        1 Z    SEL  0     **** SEL Z 16
     9 GLL5        2 GROUP        1 Z    GLL  0     **** GLL Z 20
@<TRIPOS>SET

