#    Name: 4dhf_0K6_2_ligand
#    Modification time : Tue Mar 25 09:43:48 2014

@<TRIPOS>MOLECULE
4dhf_0K6_2_ligand
   64    68     1     0     0
SMALL
NO_CHARGES


@<TRIPOS>ATOM
      1 O2        -32.1480   43.0950  -44.1990 O.2       1 0K6401      0.0000 
      2 C19       -33.3090   43.3810  -43.8840 C.2       1 0K6401      0.0000 
      3 N7        -33.6730   44.6020  -43.4690 N.am      1 0K6401      0.0000 
      4 C18       -34.3380   42.2980  -43.9520 C.2       1 0K6401      0.0000 
      5 N6        -34.8570   41.6730  -42.8590 N.pl3     1 0K6401      0.0000 
      6 C13       -34.4360   42.0360  -41.4650 C.3       1 0K6401      0.0000 
      7 C17       -35.5250   42.5750  -40.5550 C.3       1 0K6401      0.0000 
      8 C16       -34.9090   42.3950  -39.1750 C.3       1 0K6401      0.0000 
      9 C15       -34.0730   41.1360  -39.2040 C.3       1 0K6401      0.0000 
     10 C14       -33.7210   40.9330  -40.6730 C.3       1 0K6401      0.0000 
     11 C20       -34.8650   41.7940  -45.1510 C.2       1 0K6401      0.0000 
     12 C21       -35.7430   40.7950  -44.6530 C.ar      1 0K6401      0.0000 
     13 C12       -35.7330   40.7410  -43.2670 C.ar      1 0K6401      0.0000 
     14 N5        -36.5180   39.8540  -42.6320 N.ar      1 0K6401      0.0000 
     15 C22       -36.5500   39.9400  -45.3910 C.ar      1 0K6401      0.0000 
     16 N8        -37.3070   39.0740  -44.7110 N.ar      1 0K6401      0.0000 
     17 C11       -37.3020   39.0250  -43.3540 C.ar      1 0K6401      0.0000 
     18 N4        -38.0850   38.0980  -42.7360 N.pl3     1 0K6401      0.0000 
     19 C10       -38.2610   37.9650  -41.4000 C.2       1 0K6401      0.0000 
     20 C9        -37.5610   38.6060  -40.3970 C.2       1 0K6401      0.0000 
     21 N3        -38.0670   38.2310  -39.2130 N.pl3     1 0K6401      0.0000 
     22 C8        -37.5310   38.7380  -37.9180 C.3       1 0K6401      0.0000 
     23 C23       -39.2170   37.1710  -40.7860 C.2       1 0K6401      0.0000 
     24 C7        -39.0710   37.3290  -39.4140 C.2       1 0K6401      0.0000 
     25 C1        -39.9280   36.6920  -38.3510 C.2       1 0K6401      0.0000 
     26 O1        -40.4050   37.5100  -37.5820 O.2       1 0K6401      0.0000 
     27 N1        -40.2450   35.3780  -38.2190 N.am      1 0K6401      0.0000 
     28 C6        -39.7430   34.3400  -39.1360 C.3       1 0K6401      0.0000 
     29 C5        -39.4350   33.0390  -38.3800 C.3       1 0K6401      0.0000 
     30 N2        -40.6130   32.7480  -37.5790 N.4       1 0K6401      0.0000 
     31 C4        -41.5250   31.6410  -37.9100 C.3       1 0K6401      0.0000 
     32 C3        -40.8180   33.6550  -36.4680 C.3       1 0K6401      0.0000 
     33 C2        -41.1980   34.9760  -37.1550 C.3       1 0K6401      0.0000 
     34 H         -32.9421   45.2817  -43.4070 H         1 0K6401      0.0000 
     35 H         -34.6429   44.7242  -43.2584 H         1 0K6401      0.0000 
     36 H         -33.6724   42.8738  -41.5362 H         1 0K6401      0.0000 
     37 H         -36.3947   41.9822  -40.6405 H         1 0K6401      0.0000 
     38 H         -35.6825   43.6013  -40.7472 H         1 0K6401      0.0000 
     39 H         -35.6938   42.2966  -38.4419 H         1 0K6401      0.0000 
     40 H         -34.2843   43.2441  -38.9474 H         1 0K6401      0.0000 
     41 H         -34.6468   40.3068  -38.8559 H         1 0K6401      0.0000 
     42 H         -33.1795   41.2761  -38.6382 H         1 0K6401      0.0000 
     43 H         -32.6609   41.0275  -40.8089 H         1 0K6401      0.0000 
     44 H         -34.0726   39.9740  -41.0016 H         1 0K6401      0.0000 
     45 H         -34.7015   42.0280  -45.9952 H         1 0K6401      0.0000 
     46 H         -36.5474   39.9903  -46.4091 H         1 0K6401      0.0000 
     47 H         -38.6148   37.4043  -43.3747 H         1 0K6401      0.0000 
     48 H         -36.8326   39.2178  -40.5469 H         1 0K6401      0.0000 
     49 H         -39.8520   36.6225  -41.2198 H         1 0K6401      0.0000 
     50 H         -38.8247   34.6727  -39.6311 H         1 0K6401      0.0000 
     51 H         -40.4840   34.1174  -39.9109 H         1 0K6401      0.0000 
     52 H         -38.5664   33.2034  -37.7639 H         1 0K6401      0.0000 
     53 H         -39.2456   32.2638  -39.1041 H         1 0K6401      0.0000 
     54 H         -39.8240   31.8887  -36.7385 H         1 0K6401      0.0000 
     55 H         -39.9224   33.8117  -35.9094 H         1 0K6401      0.0000 
     56 H         -41.6324   33.3512  -35.8490 H         1 0K6401      0.0000 
     57 H         -42.2121   34.8642  -37.5749 H         1 0K6401      0.0000 
     58 H         -41.2569   35.7599  -36.3810 H         1 0K6401      0.0000 
     59 H         -36.5675   38.4998  -37.7961 H         1 0K6401      0.0000 
     60 H         -37.5973   39.7337  -37.8529 H         1 0K6401      0.0000 
     61 H         -38.0275   38.3595  -37.1369 H         1 0K6401      0.0000 
     62 H         -41.0566   30.7576  -37.8978 H         1 0K6401      0.0000 
     63 H         -42.2844   31.5791  -37.2623 H         1 0K6401      0.0000 
     64 H         -41.9244   31.7484  -38.8205 H         1 0K6401      0.0000 
@<TRIPOS>BOND
     1    2    1 2    
     2    3    2 am   
     3    4    2 1    
     4   34    3 1    
     5   35    3 1    
     6    5    4 1    
     7   11    4 2    
     8    6    5 1    
     9   13    5 1    
    10    7    6 1    
    11   10    6 1    
    12   36    6 1    
    13    8    7 1    
    14   37    7 1    
    15   38    7 1    
    16    9    8 1    
    17   39    8 1    
    18   40    8 1    
    19   10    9 1    
    20   41    9 1    
    21   42    9 1    
    22   43   10 1    
    23   44   10 1    
    24   12   11 1    
    25   45   11 1    
    26   13   12 ar   
    27   15   12 ar   
    28   14   13 ar   
    29   17   14 ar   
    30   16   15 ar   
    31   46   15 1    
    32   17   16 ar   
    33   18   17 1    
    34   19   18 1    
    35   47   18 1    
    36   20   19 2    
    37   23   19 1    
    38   21   20 1    
    39   48   20 1    
    40   22   21 1    
    41   24   21 1    
    42   59   22 1    
    43   60   22 1    
    44   61   22 1    
    45   24   23 2    
    46   49   23 1    
    47   25   24 1    
    48   26   25 2    
    49   27   25 am   
    50   28   27 1    
    51   33   27 1    
    52   29   28 1    
    53   50   28 1    
    54   51   28 1    
    55   30   29 1    
    56   52   29 1    
    57   53   29 1    
    58   31   30 1    
    59   32   30 1    
    60   54   30 1    
    61   62   31 1    
    62   63   31 1    
    63   64   31 1    
    64   33   32 1    
    65   55   32 1    
    66   56   32 1    
    67   57   33 1    
    68   58   33 1    
@<TRIPOS>SUBSTRUCTURE
     1 0K6401      1 GROUP   
@<TRIPOS>SET

