#    Name: 2Z2D_1_CAVITY_N1_6.mol2
#    Modification time : Tue Mar 11 04:47:48 2014

@<TRIPOS>MOLECULE
2Z2D_1_CAVITY_N1_6.mol2
   83     0     5     0     0
SMALL
NO_CHARGES


@<TRIPOS>ATOM
      1 CA         13.3671   21.7875  -25.3222 C.3       4 GLY6        0.0000 
      2 N          12.9242   21.9831  -23.9025 N.2       1 ALA2        0.0000 
      3 CA         12.0384   22.3742  -21.0631 C.3       4 GLY6        0.0000 
      4 CA         11.9446   21.5472  -25.7329 C.3       4 GLY6        0.0000 
      5 CA         11.5017   21.7427  -24.3132 C.3       4 GLY6        0.0000 
      6 N          11.0588   21.9383  -22.8935 N.2       1 ALA2        0.0000 
      7 CA          8.2137   21.4577  -23.7148 C.3       4 GLY6        0.0000 
      8 CA         13.5410   20.3198  -25.0658 C.3       4 GLY6        0.0000 
      9 N          13.0981   20.5154  -23.6461 N.2       1 ALA2        0.0000 
     10 N          12.6552   20.7110  -22.2264 N.2       1 ALA2        0.0000 
     11 CA         12.2123   20.9065  -20.8067 C.3       4 GLY6        0.0000 
     12 CA         11.7694   21.1021  -19.3870 C.3       4 GLY6        0.0000 
     13 CA         11.6756   20.2751  -24.0568 C.3       4 GLY6        0.0000 
     14 DU         11.2327   20.4706  -22.6371 H         5 CUB7        0.0000 
     15 DU         10.7898   20.6662  -21.2174 H         5 CUB7        0.0000 
     16 DU         10.3469   20.8618  -19.7976 H         5 CUB7        0.0000 
     17 CA          9.8101   20.2303  -23.0478 C.3       4 GLY6        0.0000 
     18 CZ          9.3672   20.4259  -21.6280 C.ar      3 PHE5        0.0000 
     19 CZ          8.3876   19.9900  -23.4584 C.ar      3 PHE5        0.0000 
     20 CZ          6.9651   19.7497  -23.8691 C.ar      3 PHE5        0.0000 
     21 CZ         16.5600   19.3328  -23.9880 C.ar      3 PHE5        0.0000 
     22 O          16.1171   19.5284  -22.5683 O.2       1 ALA2        0.0000 
     23 CZ         15.1374   19.0925  -24.3987 C.ar      3 PHE5        0.0000 
     24 N          14.6945   19.2881  -22.9790 N.2       1 ALA2        0.0000 
     25 N          14.2516   19.4836  -21.5593 N.2       1 ALA2        0.0000 
     26 CA         13.8087   19.6792  -20.1396 C.3       4 GLY6        0.0000 
     27 OD1        13.3658   19.8747  -18.7199 O.3       2 ASP3        0.0000 
     28 OD1        13.7149   18.8522  -24.8094 O.3       2 ASP3        0.0000 
     29 DU         13.2720   19.0477  -23.3897 H         5 CUB7        0.0000 
     30 N          12.8291   19.2433  -21.9700 N.2       1 ALA2        0.0000 
     31 CA         12.3862   19.4389  -20.5503 C.3       4 GLY6        0.0000 
     32 OD1        11.9433   19.6344  -19.1305 O.3       2 ASP3        0.0000 
     33 OD1        11.5004   19.8300  -17.7108 O.3       2 ASP3        0.0000 
     34 CA         11.8495   18.8074  -23.8004 C.3       4 GLY6        0.0000 
     35 N          11.4066   19.0030  -22.3807 N.2       1 ALA2        0.0000 
     36 DU         10.9637   19.1986  -20.9609 H         5 CUB7        0.0000 
     37 DU         10.5208   19.3941  -19.5412 H         5 CUB7        0.0000 
     38 DU         10.0779   19.5897  -18.1215 H         5 CUB7        0.0000 
     39 CA         10.4270   18.5671  -24.2111 C.3       4 GLY6        0.0000 
     40 N           9.9840   18.7627  -22.7913 N.2       1 ALA2        0.0000 
     41 DU          9.5411   18.9582  -21.3716 H         5 CUB7        0.0000 
     42 CZ          9.0982   19.1538  -19.9519 C.ar      3 PHE5        0.0000 
     43 CZ          9.0044   18.3268  -24.6217 C.ar      3 PHE5        0.0000 
     44 CZ          8.5615   18.5224  -23.2020 C.ar      3 PHE5        0.0000 
     45 CZ          8.1186   18.7179  -21.7823 C.ar      3 PHE5        0.0000 
     46 CZ          7.6757   18.9135  -20.3626 C.ar      3 PHE5        0.0000 
     47 CZ          7.1390   18.2821  -23.6127 C.ar      3 PHE5        0.0000 
     48 CZ         17.1768   17.6696  -25.1513 C.ar      3 PHE5        0.0000 
     49 O          16.7339   17.8651  -23.7316 O.2       1 ALA2        0.0000 
     50 CA         15.7543   17.4293  -25.5620 C.3       4 GLY6        0.0000 
     51 O          15.3114   17.6248  -24.1423 O.2       1 ALA2        0.0000 
     52 O          14.8684   17.8204  -22.7226 O.2       1 ALA2        0.0000 
     53 OD1        13.8888   17.3845  -24.5530 O.3       2 ASP3        0.0000 
     54 N          13.4459   17.5801  -23.1333 N.2       1 ALA2        0.0000 
     55 N          13.0030   17.7756  -21.7136 N.2       1 ALA2        0.0000 
     56 OD1        12.5601   17.9712  -20.2938 O.3       2 ASP3        0.0000 
     57 OD1        12.1172   18.1668  -18.8741 O.3       2 ASP3        0.0000 
     58 N          11.6743   18.3623  -17.4544 N.2       1 ALA2        0.0000 
     59 N          11.1376   17.7309  -20.7045 N.2       1 ALA2        0.0000 
     60 N          10.6947   17.9265  -19.2848 N.2       1 ALA2        0.0000 
     61 N          10.2518   18.1220  -17.8651 N.2       1 ALA2        0.0000 
     62 N          10.1579   17.2950  -22.5349 N.2       1 ALA2        0.0000 
     63 CA          9.7150   17.4906  -21.1152 C.3       4 GLY6        0.0000 
     64 CA          9.2721   17.6861  -19.6955 C.3       4 GLY6        0.0000 
     65 DU          8.8292   17.8817  -18.2758 H         5 CUB7        0.0000 
     66 CA          8.7354   17.0547  -22.9456 C.3       4 GLY6        0.0000 
     67 CA          8.2925   17.2503  -21.5259 C.3       4 GLY6        0.0000 
     68 CA          7.8496   17.4458  -20.1062 C.3       4 GLY6        0.0000 
     69 CZ          7.4067   17.6414  -18.6865 C.ar      3 PHE5        0.0000 
     70 O           6.8700   17.0100  -21.9366 O.2       1 ALA2        0.0000 
     71 O           6.4271   17.2055  -20.5169 O.2       1 ALA2        0.0000 
     72 O          16.9078   16.3975  -23.4752 O.2       1 ALA2        0.0000 
     73 CA         15.4853   16.1572  -23.8859 C.3       4 GLY6        0.0000 
     74 O          15.0423   16.3527  -22.4662 O.2       1 ALA2        0.0000 
     75 N          13.1769   16.3080  -21.4572 N.2       1 ALA2        0.0000 
     76 N          12.7340   16.5035  -20.0374 N.2       1 ALA2        0.0000 
     77 CA         11.3115   16.2632  -20.4481 C.3       4 GLY6        0.0000 
     78 N          10.8686   16.4588  -19.0284 N.2       1 ALA2        0.0000 
     79 N          10.4257   16.6544  -17.6087 N.2       1 ALA2        0.0000 
     80 CA          9.4460   16.2185  -19.4391 C.3       4 GLY6        0.0000 
     81 N           9.0031   16.4140  -18.0194 N.2       1 ALA2        0.0000 
     82 O           7.5806   16.1737  -18.4301 O.2       1 ALA2        0.0000 
     83 N           7.7545   14.7061  -18.1736 N.2       1 ALA2        0.0000 
@<TRIPOS>BOND
@<TRIPOS>SUBSTRUCTURE
     1 ALA2        2 GROUP   
     2 ASP3       27 GROUP   
     3 PHE5       18 GROUP   
     4 GLY6        1 GROUP   
     5 CUB7       14 GROUP   
@<TRIPOS>SET

