#    Name: 2z2d_HSI_1_INTS_M
#    Modification time : Tue Mar 25 09:53:23 2014

@<TRIPOS>MOLECULE
2z2d_HSI_1_INTS_M
   57     0     6     0     0
SMALL
NO_CHARGES


@<TRIPOS>ATOM
      1 CA          7.1370   20.7520  -20.0555 C.3       2 GLC5        0.0000 
      2 CA          8.9800   21.5980  -19.6560 C.3       6 GLL5        0.0000 
      3 CA          5.2940   19.9060  -20.4550 C.3       4 GLP5        0.0000 
      4 CA         11.9200   22.4645  -19.7465 C.3       2 GLC5        0.0000 
      5 CA         10.4100   21.3630  -20.2140 C.3       6 GLL5        0.0000 
      6 CA         13.4300   23.5660  -19.2790 C.3       4 GLP5        0.0000 
      7 CA         13.1520   21.9915  -21.0620 C.3       2 GLC5        0.0000 
      8 CA         11.7710   21.3490  -22.3910 C.3       6 GLL5        0.0000 
      9 CA         14.5330   22.6340  -19.7330 C.3       4 GLP5        0.0000 
     10 CA         10.9660   20.3550  -25.0255 C.3       2 GLC5        0.0000 
     11 CA         12.0450   20.3660  -23.5610 C.3       6 GLL5        0.0000 
     12 CA          9.8870   20.3440  -26.4900 C.3       4 GLP5        0.0000 
     13 CA         11.4450   18.9730  -24.9375 C.3       2 GLC5        0.0000 
     14 CA         12.2040   18.8880  -23.1020 C.3       6 GLL5        0.0000 
     15 CA         10.6860   19.0580  -26.7730 C.3       4 GLP5        0.0000 
     16 N          12.9930   17.2560  -26.0395 N.am      1 SEC2        0.0000 
     17 N          12.9180   17.3920  -24.7520 N.am      5 SEL2        0.0000 
     18 N          13.0680   17.1200  -27.3270 N.am      3 SEP2        0.0000 
     19 N          12.5920   16.0940  -25.2900 N.am      1 SEC2        0.0000 
     20 N          12.2660   14.7960  -25.8280 N.am      3 SEP2        0.0000 
     21 CA         15.6545   20.8985  -24.6765 C.3       2 GLC5        0.0000 
     22 CA         15.1970   19.6570  -23.1820 C.3       6 GLL5        0.0000 
     23 CA         16.1120   22.1400  -26.1710 C.3       4 GLP5        0.0000 
     24 CA         17.9295   19.6635  -25.2150 C.3       2 GLC5        0.0000 
     25 CA         18.9260   19.3840  -23.3800 C.3       6 GLL5        0.0000 
     26 CA         16.9330   19.9430  -27.0500 C.3       4 GLP5        0.0000 
     27 CA         25.3685   20.2100  -24.3505 C.3       2 GLC5        0.0000 
     28 CA         25.9130   20.9150  -22.7030 C.3       6 GLL5        0.0000 
     29 CA         24.8240   19.5050  -25.9980 C.3       4 GLP5        0.0000 
     30 CA         23.6010   22.5140  -25.1295 C.3       2 GLC5        0.0000 
     31 CA         23.3830   21.3770  -23.6250 C.3       6 GLL5        0.0000 
     32 CA         23.8190   23.6510  -26.6340 C.3       4 GLP5        0.0000 
     33 CA         21.6890   22.6350  -25.0200 C.3       2 GLC5        0.0000 
     34 CA         22.0230   21.0790  -23.7580 C.3       6 GLL5        0.0000 
     35 CA         21.3550   24.1910  -26.2820 C.3       4 GLP5        0.0000 
     36 CA         17.1545   17.0015  -22.0920 C.3       2 GLC5        0.0000 
     37 CA         17.1170   17.8830  -24.1370 C.3       6 GLL5        0.0000 
     38 CA         17.1920   16.1200  -20.0470 C.3       4 GLP5        0.0000 
     39 CA         15.2935   16.5935  -25.8760 C.3       2 GLC5        0.0000 
     40 CA         15.7570   17.5850  -24.2670 C.3       6 GLL5        0.0000 
     41 CA         14.8300   15.6020  -27.4850 C.3       4 GLP5        0.0000 
     42 CA         17.1120   21.1378  -24.2880 C.3       2 GLC5        0.0000 
     43 CA         17.5210   19.0720  -23.5250 C.3       6 GLL5        0.0000 
     44 CA         17.1860   22.7600  -25.2910 C.3       4 GLP5        0.0000 
     45 CA         19.9220   21.0478  -22.1382 C.3       2 GLC5        0.0000 
     46 CA         20.3350   22.5850  -20.9490 C.3       4 GLP5        0.0000 
     47 CA         23.3655   19.5155  -24.3790 C.3       2 GLC5        0.0000 
     48 CA         21.4920   19.9450  -23.1370 C.3       6 GLL5        0.0000 
     49 CA         21.1030   18.1710  -23.7377 C.3       2 GLC5        0.0000 
     50 CA         22.3220   19.1070  -22.3830 C.3       6 GLL5        0.0000 
     51 CA         20.6490   16.8930  -24.6810 C.3       4 GLP5        0.0000 
     52 CA         22.9505   17.8912  -20.9345 C.3       2 GLC5        0.0000 
     53 CA         22.9000   16.5260  -19.5520 C.3       4 GLP5        0.0000 
     54 CA         24.3850   19.7392  -24.2795 C.3       2 GLC5        0.0000 
     55 CA         23.6800   19.4060  -22.2510 C.3       6 GLL5        0.0000 
     56 CA         23.7635   20.3665  -24.8448 C.3       2 GLC5        0.0000 
     57 CA         19.1596   17.7242  -24.2379 C.3       2 GLC5        0.0000 
@<TRIPOS>BOND
@<TRIPOS>SUBSTRUCTURE
     1 SEC2       16 GROUP        1 X    SEC  0     ROOT SEC X 2
     2 GLC5        1 GROUP        1 X    GLC  0     **** GLC X 6
     3 SEP2       18 GROUP        1 Y    SEP  0     ROOT SEP Y 9
     4 GLP5        3 GROUP        1 Y    GLP  0     **** GLP Y 13
     5 SEL2       17 GROUP        1 Z    SEL  0     ROOT SEL Z 16
     6 GLL5        2 GROUP        1 Z    GLL  0     **** GLL Z 20
@<TRIPOS>SET

