#    Name: 2z2d_HSI_1_ligand
#    Modification time : Tue Mar 25 09:53:23 2014

@<TRIPOS>MOLECULE
2z2d_HSI_1_ligand
   52    53     1     0     0
SMALL
NO_CHARGES


@<TRIPOS>ATOM
      1 C60         8.9960   22.5890  -18.4630 C.3       1 HSI269      0.0000 
      2 C56         8.9800   21.5980  -19.6560 C.3       1 HSI269      0.0000 
      3 C52        10.4100   21.3630  -20.2140 C.3       1 HSI269      0.0000 
      4 C48        10.3820   21.0880  -21.7440 C.3       1 HSI269      0.0000 
      5 C44        11.7710   21.3490  -22.3910 C.3       1 HSI269      0.0000 
      6 C40        12.0450   20.3660  -23.5610 C.3       1 HSI269      0.0000 
      7 C9         12.2040   18.8880  -23.1020 C.3       1 HSI269      0.0000 
      8 C5         12.5460   18.8360  -21.5840 C.3       1 HSI269      0.0000 
      9 C3         12.8160   17.4190  -21.1400 C.2       1 HSI269      0.0000 
     10 O1         13.7500   16.7590  -21.8360 O.co2     1 HSI269      0.0000 
     11 O4         12.2110   16.9170  -20.2050 O.co2     1 HSI269      0.0000 
     12 C11        13.2840   18.2130  -23.9270 C.2       1 HSI269      0.0000 
     13 O12        12.9180   17.3920  -24.7520 O.2       1 HSI269      0.0000 
     14 C13        14.7750   18.4700  -23.7990 C.ar      1 HSI269      0.0000 
     15 C14        15.1970   19.6570  -23.1820 C.ar      1 HSI269      0.0000 
     16 C16        16.5550   19.9590  -23.0450 C.ar      1 HSI269      0.0000 
     17 C18        17.5210   19.0720  -23.5250 C.ar      1 HSI269      0.0000 
     18 C25        18.9260   19.3840  -23.3800 C.1       1 HSI269      0.0000 
     19 C26        20.0920   19.6370  -23.2750 C.1       1 HSI269      0.0000 
     20 C27        21.4920   19.9450  -23.1370 C.ar      1 HSI269      0.0000 
     21 C28        22.3220   19.1070  -22.3830 C.ar      1 HSI269      0.0000 
     22 C30        23.6800   19.4060  -22.2510 C.ar      1 HSI269      0.0000 
     23 C32        24.2120   20.5410  -22.8710 C.ar      1 HSI269      0.0000 
     24 CL1        25.9130   20.9150  -22.7030 Cl        1 HSI269      0.0000 
     25 C33        23.3830   21.3770  -23.6250 C.ar      1 HSI269      0.0000 
     26 C35        22.0230   21.0790  -23.7580 C.ar      1 HSI269      0.0000 
     27 C19        17.1170   17.8830  -24.1370 C.ar      1 HSI269      0.0000 
     28 C21        15.7570   17.5850  -24.2670 C.ar      1 HSI269      0.0000 
     29 H           8.3551   22.0037  -20.4455 H         1 HSI269      0.0000 
     30 H           8.5704   20.6493  -19.3234 H         1 HSI269      0.0000 
     31 H          10.8508   20.5089  -19.7101 H         1 HSI269      0.0000 
     32 H          11.0132   22.2451  -20.0251 H         1 HSI269      0.0000 
     33 H           9.6485   21.7401  -22.2067 H         1 HSI269      0.0000 
     34 H          10.1029   20.0529  -21.9117 H         1 HSI269      0.0000 
     35 H          12.5410   21.2242  -21.6359 H         1 HSI269      0.0000 
     36 H          11.7985   22.3662  -22.7693 H         1 HSI269      0.0000 
     37 H          12.9602   20.6746  -24.0752 H         1 HSI269      0.0000 
     38 H          11.2171   20.4253  -24.2740 H         1 HSI269      0.0000 
     39 H          11.2658   18.3873  -23.2572 H         1 HSI269      0.0000 
     40 H          11.7046   19.2485  -21.0306 H         1 HSI269      0.0000 
     41 H          13.4228   19.4569  -21.4106 H         1 HSI269      0.0000 
     42 H          14.4893   20.3191  -22.8228 H         1 HSI269      0.0000 
     43 H          16.8419   20.8339  -22.5910 H         1 HSI269      0.0000 
     44 H          21.9321   18.2747  -21.9285 H         1 HSI269      0.0000 
     45 H          24.2893   18.7919  -21.6980 H         1 HSI269      0.0000 
     46 H          23.7722   22.2095  -24.0810 H         1 HSI269      0.0000 
     47 H          21.4156   21.6930  -24.3114 H         1 HSI269      0.0000 
     48 H          17.8211   17.2248  -24.4930 H         1 HSI269      0.0000 
     49 H          15.4696   16.7001  -24.7142 H         1 HSI269      0.0000 
     50 H           9.5617   22.2540  -17.7095 H         1 HSI269      0.0000 
     51 H           9.3590   23.4825  -18.7273 H         1 HSI269      0.0000 
     52 H           8.0788   22.7423  -18.0952 H         1 HSI269      0.0000 
@<TRIPOS>BOND
     1    2    1 1    
     2   50    1 1    
     3   51    1 1    
     4   52    1 1    
     5    3    2 1    
     6   29    2 1    
     7   30    2 1    
     8    4    3 1    
     9   31    3 1    
    10   32    3 1    
    11    5    4 1    
    12   33    4 1    
    13   34    4 1    
    14    6    5 1    
    15   35    5 1    
    16   36    5 1    
    17    7    6 1    
    18   37    6 1    
    19   38    6 1    
    20    8    7 1    
    21   12    7 1    
    22   39    7 1    
    23    9    8 1    
    24   40    8 1    
    25   41    8 1    
    26   10    9 ar   
    27   11    9 ar   
    28   13   12 2    
    29   14   12 1    
    30   15   14 ar   
    31   28   14 ar   
    32   16   15 ar   
    33   42   15 1    
    34   17   16 ar   
    35   43   16 1    
    36   18   17 1    
    37   27   17 ar   
    38   19   18 3    
    39   20   19 1    
    40   21   20 ar   
    41   26   20 ar   
    42   22   21 ar   
    43   44   21 1    
    44   23   22 ar   
    45   45   22 1    
    46   24   23 1    
    47   25   23 ar   
    48   26   25 ar   
    49   46   25 1    
    50   47   26 1    
    51   28   27 ar   
    52   48   27 1    
    53   49   28 1    
@<TRIPOS>SUBSTRUCTURE
     1 HSI269      1 GROUP   
@<TRIPOS>SET

