#    Name: 1gvt_2ZS_1_INTS_M
#    Modification time : Tue Mar 25 04:02:54 2014

@<TRIPOS>MOLECULE
1gvt_2ZS_1_INTS_M
  104     0     9     0     0
SMALL
NO_CHARGES


@<TRIPOS>ATOM
      1 CA          2.8615  261.9605   18.0235 C.3       3 GLC5        0.0000 
      2 CA          1.5430  262.3170   19.3640 C.3       9 GLL5        0.0000 
      3 CA          4.1800  261.6040   16.6830 C.3       6 GLP5        0.0000 
      4 CA          0.7945  261.8650   17.6115 C.3       3 GLC5        0.0000 
      5 CA          0.0460  261.4130   15.8590 C.3       6 GLP5        0.0000 
      6 CA          3.0300  263.2610   18.0805 C.3       3 GLC5        0.0000 
      7 CA          2.2880  263.4970   19.8390 C.3       9 GLL5        0.0000 
      8 CA          3.7720  263.0250   16.3220 C.3       6 GLP5        0.0000 
      9 CA         -0.8440  262.3585   18.2310 C.3       3 GLC5        0.0000 
     10 CA         -0.4950  263.3910   19.7320 C.3       9 GLL5        0.0000 
     11 CA         -1.1930  261.3260   16.7300 C.3       6 GLP5        0.0000 
     12 CA         -1.8230  261.8190   19.6700 C.3       3 GLC5        0.0000 
     13 CA         -3.1510  260.2470   19.6080 C.3       6 GLP5        0.0000 
     14 O           3.8745  264.9620   18.0235 O.2       1 ALC1        0.0000 
     15 O           3.2770  265.9650   18.9260 O.2       7 ALL1        0.0000 
     16 O           4.4720  263.9590   17.1210 O.2       4 ALP1        0.0000 
     17 N           3.3345  265.8520   15.4430 N.am      2 SEC2        0.0000 
     18 N           2.8230  266.9560   16.3340 N.am      8 SEL2        0.0000 
     19 N           3.8460  264.7480   14.5520 N.am      5 SEP2        0.0000 
     20 CA          8.1450  265.4350   18.8585 C.3       3 GLC5        0.0000 
     21 CA          6.3540  265.7160   20.0650 C.3       9 GLL5        0.0000 
     22 CA          9.9360  265.1540   17.6520 C.3       6 GLP5        0.0000 
     23 O           3.3110  269.8880   18.3360 O.2       1 ALC1        0.0000 
     24 O           3.0180  269.0750   17.1480 O.2       7 ALL1        0.0000 
     25 O           3.6040  270.7010   19.5240 O.2       4 ALP1        0.0000 
     26 CA          3.2950  268.2285   14.5940 C.3       3 GLC5        0.0000 
     27 CA          2.5020  269.6720   15.9230 C.3       9 GLL5        0.0000 
     28 CA          4.0880  266.7850   13.2650 C.3       6 GLP5        0.0000 
     29 CA          0.9410  268.3740   13.7040 C.3       3 GLC5        0.0000 
     30 CA          0.2960  270.3150   14.5270 C.3       9 GLL5        0.0000 
     31 CA          1.5860  266.4330   12.8810 C.3       6 GLP5        0.0000 
     32 CA         -0.7840  272.3000   15.3965 C.3       3 GLC5        0.0000 
     33 CA         -1.5270  270.4840   14.7450 C.3       9 GLL5        0.0000 
     34 CA         -0.0410  274.1160   16.0480 C.3       6 GLP5        0.0000 
     35 CA         -2.7985  269.5475   14.0630 C.3       3 GLC5        0.0000 
     36 CA         -4.0700  268.6110   13.3810 C.3       6 GLP5        0.0000 
     37 N           1.6755  272.4885   17.2225 N.am      2 SEC2        0.0000 
     38 N           2.8020  272.0120   16.3330 N.am      8 SEL2        0.0000 
     39 N           0.5490  272.9650   18.1120 N.am      5 SEP2        0.0000 
     40 O           5.0770  269.7730   14.6745 O.2       1 ALC1        0.0000 
     41 O           4.2410  271.0150   14.9140 O.2       7 ALL1        0.0000 
     42 O           5.9130  268.5310   14.4350 O.2       4 ALP1        0.0000 
     43 CA          7.0140  270.1500   13.8065 C.3       3 GLC5        0.0000 
     44 CA          6.5850  271.8090   14.9760 C.3       9 GLL5        0.0000 
     45 CA          7.4430  268.4910   12.6370 C.3       6 GLP5        0.0000 
     46 CA          5.9720  273.9920   17.1715 C.3       3 GLC5        0.0000 
     47 CA          6.4890  272.2450   17.4690 C.3       9 GLL5        0.0000 
     48 CA          5.4550  275.7390   16.8740 C.3       6 GLP5        0.0000 
     49 CA         10.6435  269.9150   16.9205 C.3       3 GLC5        0.0000 
     50 CA          8.6550  270.2730   17.8940 C.3       9 GLL5        0.0000 
     51 CA         12.6320  269.5570   15.9470 C.3       6 GLP5        0.0000 
     52 CA         10.1220  269.1870   19.0550 C.3       3 GLC5        0.0000 
     53 CA         11.5890  268.1010   20.2160 C.3       6 GLP5        0.0000 
     54 CA          7.8375  273.1580   19.7340 C.3       3 GLC5        0.0000 
     55 CA          6.8510  271.6870   18.8760 C.3       9 GLL5        0.0000 
     56 CA          8.8240  274.6290   20.5920 C.3       6 GLP5        0.0000 
     57 CA          9.1035  272.5405   19.9240 C.3       3 GLC5        0.0000 
     58 CA          8.3060  271.2620   18.9520 C.3       9 GLL5        0.0000 
     59 CA          9.9010  273.8190   20.8960 C.3       6 GLP5        0.0000 
     60 CA          5.3590  272.9200   11.0835 C.3       3 GLC5        0.0000 
     61 CA          4.9800  272.6890   13.2660 C.3       9 GLL5        0.0000 
     62 CA          5.7380  273.1510    8.9010 C.3       6 GLP5        0.0000 
     63 N           4.3990  271.0275   11.4300 N.am      2 SEC2        0.0000 
     64 N           5.1730  271.6490   12.3060 N.am      8 SEL2        0.0000 
     65 N           3.6250  270.4060   10.5540 N.am      5 SEP2        0.0000 
     66 O           6.4035  271.5945   11.8465 O.2       1 ALC1        0.0000 
     67 O           5.1730  271.6490   12.3060 O.2       7 ALL1        0.0000 
     68 O           7.6340  271.5400   11.3870 O.2       4 ALP1        0.0000 
     69 O           6.5725  272.5470   12.3930 O.2       1 ALC1        0.0000 
     70 O           7.9720  273.4450   12.4800 O.2       4 ALP1        0.0000 
     71 N           2.2470  274.4570   14.9435 N.am      2 SEC2        0.0000 
     72 N           3.1860  274.2130   13.8390 N.am      8 SEL2        0.0000 
     73 N           1.3080  274.7010   16.0480 N.am      5 SEP2        0.0000 
     74 CA          0.7205  273.6970   13.9910 C.3       3 GLC5        0.0000 
     75 CA          1.4820  273.2780   11.9340 C.3       9 GLL5        0.0000 
     76 CA          1.9780  275.0290    9.2695 C.3       3 GLC5        0.0000 
     77 CA          1.5780  274.3120   10.8550 C.3       9 GLL5        0.0000 
     78 CA          2.3780  275.7460    7.6840 C.3       6 GLP5        0.0000 
     79 CA          1.4230  272.9780    9.1120 C.3       3 GLC5        0.0000 
     80 CA          1.2680  271.6440    7.3690 C.3       6 GLP5        0.0000 
     81 CA          0.9580  271.8600    9.4175 C.3       3 GLC5        0.0000 
     82 CA          0.6480  272.0760   11.4660 C.3       9 GLL5        0.0000 
     83 CA         -0.3220  270.6600   11.2615 C.3       3 GLC5        0.0000 
     84 CA         -1.2920  269.2440   11.0570 C.3       6 GLP5        0.0000 
     85 CA          2.7252  261.0820   19.6748 C.3       3 GLC5        0.0000 
     86 CA          3.5350  259.2570   19.7480 C.3       6 GLP5        0.0000 
     87 CA          7.0900  263.8865   20.4130 C.3       3 GLC5        0.0000 
     88 CA          7.4470  262.1390   20.1960 C.3       6 GLP5        0.0000 
     89 CA          9.5847  267.6848   20.8865 C.3       3 GLC5        0.0000 
     90 CA          7.7080  266.6390   21.7980 C.3       9 GLL5        0.0000 
     91 CA          9.1745  265.1023   21.4333 C.3       3 GLC5        0.0000 
     92 CA         10.9390  264.1090   21.3700 C.3       6 GLP5        0.0000 
     93 CA          1.5220  270.4583   17.8283 C.3       3 GLC5        0.0000 
     94 CA          1.3050  271.1770   19.6420 C.3       6 GLP5        0.0000 
     95 CA          0.2975  272.0885   15.6822 C.3       3 GLC5        0.0000 
     96 CA          0.9760  269.8070   16.1060 C.3       9 GLL5        0.0000 
     97 CA         -0.9537  269.8218   12.8465 C.3       3 GLC5        0.0000 
     98 CA          8.7845  272.6541   15.7385 C.3       3 GLC5        0.0000 
     99 CA         10.0640  274.1220   15.3730 C.3       6 GLP5        0.0000 
    100 CA          9.9987  272.1658   17.8695 C.3       3 GLC5        0.0000 
    101 CA         11.5170  273.5640   17.3160 C.3       6 GLP5        0.0000 
    102 CA          5.6718  274.0649   14.8102 C.3       3 GLC5        0.0000 
    103 CA          5.1010  272.1600   14.7020 C.3       9 GLL5        0.0000 
    104 CA          5.9320  275.7930   15.5680 C.3       6 GLP5        0.0000 
@<TRIPOS>BOND
@<TRIPOS>SUBSTRUCTURE
     1 ALC1       14 GROUP        1 X    ALC  0     ROOT ALC X 1
     2 SEC2       17 GROUP        1 X    SEC  0     **** SEC X 2
     3 GLC5        1 GROUP        1 X    GLC  0     **** GLC X 6
     4 ALP1       16 GROUP        1 Y    ALP  0     ROOT ALP Y 8
     5 SEP2       19 GROUP        1 Y    SEP  0     **** SEP Y 9
     6 GLP5        3 GROUP        1 Y    GLP  0     **** GLP Y 13
     7 ALL1       15 GROUP        1 Z    ALL  0     ROOT ALL Z 15
     8 SEL2       18 GROUP        1 Z    SEL  0     **** SEL Z 16
     9 GLL5        2 GROUP        1 Z    GLL  0     **** GLL Z 20
@<TRIPOS>SET

