#    Name: 1gvt_2ZS_1_ligand
#    Modification time : Tue Mar 25 04:02:54 2014

@<TRIPOS>MOLECULE
1gvt_2ZS_1_ligand
   91    93     1     0     0
SMALL
NO_CHARGES


@<TRIPOS>ATOM
      1 O1          0.2390  262.2250   20.0960 O.3       1 2ZS400      0.0000 
      2 C2          1.5430  262.3170   19.3640 C.3       1 2ZS400      0.0000 
      3 C3          2.2880  263.4970   19.8390 C.3       1 2ZS400      0.0000 
      4 N4          1.4710  264.7230   19.7070 N.am      1 2ZS400      0.0000 
      5 C5          0.1800  264.6380   20.2220 C.3       1 2ZS400      0.0000 
      6 C6         -0.4950  263.3910   19.7320 C.3       1 2ZS400      0.0000 
      7 C           2.0070  265.9240   19.4250 C.2       1 2ZS400      0.0000 
      8 O           1.3350  266.9570   19.5160 O.2       1 2ZS400      0.0000 
      9 N           3.2770  265.9650   18.9260 N.am      1 2ZS400      0.0000 
     10 CA          3.8460  267.2560   18.5100 C.3       1 2ZS400      0.0000 
     11 C1          3.1690  267.7420   17.2510 C.2       1 2ZS400      0.0000 
     12 O2          2.8230  266.9560   16.3340 O.2       1 2ZS400      0.0000 
     13 CB          5.3530  267.1290   18.2390 C.3       1 2ZS400      0.0000 
     14 CG          6.1600  266.9740   19.4980 C.ar      1 2ZS400      0.0000 
     15 CD1         6.7140  268.0440   20.1450 C.ar      1 2ZS400      0.0000 
     16 CD2         6.3540  265.7160   20.0650 C.ar      1 2ZS400      0.0000 
     17 CE1         7.4530  267.8980   21.3160 C.ar      1 2ZS400      0.0000 
     18 CE2         7.1120  265.5520   21.1950 C.ar      1 2ZS400      0.0000 
     19 CZ          7.7080  266.6390   21.7980 C.ar      1 2ZS400      0.0000 
     20 N1          3.0180  269.0750   17.1480 N.am      1 2ZS400      0.0000 
     21 CA1         2.5020  269.6720   15.9230 C.3       1 2ZS400      0.0000 
     22 CB1         0.9760  269.8070   16.1060 C.3       1 2ZS400      0.0000 
     23 SG          0.2960  270.3150   14.5270 S.3       1 2ZS400      0.0000 
     24 CS         -1.5270  270.4840   14.7450 C.3       1 2ZS400      0.0000 
     25 C4          3.1880  271.0170   15.7200 C.2       1 2ZS400      0.0000 
     26 O3          2.8020  272.0120   16.3330 O.2       1 2ZS400      0.0000 
     27 N2          4.2410  271.0150   14.9140 N.am      1 2ZS400      0.0000 
     28 CA2         5.1010  272.1600   14.7020 C.3       1 2ZS400      0.0000 
     29 CB2         6.5850  271.8090   14.9760 C.3       1 2ZS400      0.0000 
     30 CG1         6.8210  271.2340   16.4060 C.3       1 2ZS400      0.0000 
     31 CD11        8.3070  270.8510   16.5170 C.3       1 2ZS400      0.0000 
     32 CD21        6.4890  272.2450   17.4690 C.3       1 2ZS400      0.0000 
     33 CE11        8.6550  270.2730   17.8940 C.3       1 2ZS400      0.0000 
     34 CE21        6.8510  271.6870   18.8760 C.3       1 2ZS400      0.0000 
     35 CZ1         8.3060  271.2620   18.9520 C.3       1 2ZS400      0.0000 
     36 CH          4.9800  272.6890   13.2660 C.3       1 2ZS400      0.0000 
     37 OH          5.1730  271.6490   12.3060 O.3       1 2ZS400      0.0000 
     38 C7          3.5970  273.3080   13.1040 C.2       1 2ZS400      0.0000 
     39 O11         3.1860  274.2130   13.8390 O.2       1 2ZS400      0.0000 
     40 O21         2.8470  272.7410   12.1470 O.3       1 2ZS400      0.0000 
     41 CM          1.4820  273.2780   11.9340 C.3       1 2ZS400      0.0000 
     42 CM1         1.5780  274.3120   10.8550 C.3       1 2ZS400      0.0000 
     43 CM2         0.6480  272.0760   11.4660 C.3       1 2ZS400      0.0000 
     44 H           1.3496  262.3987   18.2924 H         1 2ZS400      0.0000 
     45 H           2.1213  261.4082   19.5427 H         1 2ZS400      0.0000 
     46 H           3.2164  263.6089   19.2595 H         1 2ZS400      0.0000 
     47 H           2.5746  263.3570   20.8919 H         1 2ZS400      0.0000 
     48 H          -0.4451  265.4998   19.9233 H         1 2ZS400      0.0000 
     49 H           0.1734  264.6133   21.3274 H         1 2ZS400      0.0000 
     50 H          -1.5190  263.3658   20.1496 H         1 2ZS400      0.0000 
     51 H          -0.6063  263.4672   18.6341 H         1 2ZS400      0.0000 
     52 H           3.8607  265.1405   18.8242 H         1 2ZS400      0.0000 
     53 H           3.7080  267.9959   19.2823 H         1 2ZS400      0.0000 
     54 H           5.6848  268.0229   17.6926 H         1 2ZS400      0.0000 
     55 H           5.5168  266.2623   17.5835 H         1 2ZS400      0.0000 
     56 H           6.5845  269.0067   19.7563 H         1 2ZS400      0.0000 
     57 H           5.9099  264.8900   19.6136 H         1 2ZS400      0.0000 
     58 H           7.7997  268.7302   21.8072 H         1 2ZS400      0.0000 
     59 H           7.2399  264.6074   21.6010 H         1 2ZS400      0.0000 
     60 H           8.3369  266.5044   22.6008 H         1 2ZS400      0.0000 
     61 H           3.2554  269.7215   17.9147 H         1 2ZS400      0.0000 
     62 H           2.6939  269.0368   15.0907 H         1 2ZS400      0.0000 
     63 H           0.7047  270.5906   16.7477 H         1 2ZS400      0.0000 
     64 H           0.4994  268.8912   16.2894 H         1 2ZS400      0.0000 
     65 H           4.5103  270.1468   14.3701 H         1 2ZS400      0.0000 
     66 H           4.8373  272.9745   15.3727 H         1 2ZS400      0.0000 
     67 H           7.1918  272.7095   14.8572 H         1 2ZS400      0.0000 
     68 H           6.9174  271.0701   14.2433 H         1 2ZS400      0.0000 
     69 H           6.2330  270.3550   16.5209 H         1 2ZS400      0.0000 
     70 H           8.9171  271.7395   16.3364 H         1 2ZS400      0.0000 
     71 H           8.5413  270.1110   15.7477 H         1 2ZS400      0.0000 
     72 H           5.4269  272.4716   17.4559 H         1 2ZS400      0.0000 
     73 H           7.0535  273.1592   17.3101 H         1 2ZS400      0.0000 
     74 H           9.7189  270.0510   17.9189 H         1 2ZS400      0.0000 
     75 H           8.0946  269.3524   18.0362 H         1 2ZS400      0.0000 
     76 H           6.2044  270.8341   19.0836 H         1 2ZS400      0.0000 
     77 H           6.6527  272.4641   19.6147 H         1 2ZS400      0.0000 
     78 H           8.9405  272.1542   18.8536 H         1 2ZS400      0.0000 
     79 H           8.4968  270.8303   19.9447 H         1 2ZS400      0.0000 
     80 H           5.7090  273.4814   13.1474 H         1 2ZS400      0.0000 
     81 H           1.0920  273.6651   12.8153 H         1 2ZS400      0.0000 
     82 H          -1.7563  271.1638   15.4417 H         1 2ZS400      0.0000 
     83 H          -1.9775  270.7682   13.8987 H         1 2ZS400      0.0000 
     84 H          -1.9489  269.6221   15.0264 H         1 2ZS400      0.0000 
     85 H           2.1916  275.0592   11.1102 H         1 2ZS400      0.0000 
     86 H           1.9258  273.9260   10.0006 H         1 2ZS400      0.0000 
     87 H           0.6880  274.7201   10.6514 H         1 2ZS400      0.0000 
     88 H           1.0057  271.6831   10.6188 H         1 2ZS400      0.0000 
     89 H           0.6371  271.3438   12.1470 H         1 2ZS400      0.0000 
     90 H          -0.3038  272.3292   11.2927 H         1 2ZS400      0.0000 
     91 H           6.1302  271.7283   12.0276 H         1 2ZS400      0.0000 
@<TRIPOS>BOND
     1    2    1 1    
     2    6    1 1    
     3    3    2 1    
     4   44    2 1    
     5   45    2 1    
     6    4    3 1    
     7   46    3 1    
     8   47    3 1    
     9    5    4 1    
    10    7    4 am   
    11    6    5 1    
    12   48    5 1    
    13   49    5 1    
    14   50    6 1    
    15   51    6 1    
    16    8    7 2    
    17    9    7 am   
    18   10    9 1    
    19   52    9 1    
    20   11   10 1    
    21   13   10 1    
    22   53   10 1    
    23   12   11 2    
    24   20   11 am   
    25   14   13 1    
    26   54   13 1    
    27   55   13 1    
    28   15   14 ar   
    29   16   14 ar   
    30   17   15 ar   
    31   56   15 1    
    32   18   16 ar   
    33   57   16 1    
    34   19   17 ar   
    35   58   17 1    
    36   19   18 ar   
    37   59   18 1    
    38   60   19 1    
    39   21   20 1    
    40   61   20 1    
    41   22   21 1    
    42   25   21 1    
    43   62   21 1    
    44   23   22 1    
    45   63   22 1    
    46   64   22 1    
    47   24   23 1    
    48   82   24 1    
    49   83   24 1    
    50   84   24 1    
    51   26   25 2    
    52   27   25 am   
    53   28   27 1    
    54   65   27 1    
    55   29   28 1    
    56   36   28 1    
    57   66   28 1    
    58   30   29 1    
    59   67   29 1    
    60   68   29 1    
    61   31   30 1    
    62   32   30 1    
    63   69   30 1    
    64   33   31 1    
    65   70   31 1    
    66   71   31 1    
    67   34   32 1    
    68   72   32 1    
    69   73   32 1    
    70   35   33 1    
    71   74   33 1    
    72   75   33 1    
    73   35   34 1    
    74   76   34 1    
    75   77   34 1    
    76   78   35 1    
    77   79   35 1    
    78   37   36 1    
    79   38   36 1    
    80   80   36 1    
    81   91   37 1    
    82   39   38 2    
    83   40   38 1    
    84   41   40 1    
    85   42   41 1    
    86   43   41 1    
    87   81   41 1    
    88   85   42 1    
    89   86   42 1    
    90   87   42 1    
    91   88   43 1    
    92   89   43 1    
    93   90   43 1    
@<TRIPOS>SUBSTRUCTURE
     1 2ZS400      1 GROUP   
@<TRIPOS>SET

