#    Name: 1qzy_TDE_1_INTS_M
#    Modification time : Tue Mar 25 00:12:45 2014

@<TRIPOS>MOLECULE
1qzy_TDE_1_INTS_M
   78     0    12     0     0
SMALL
NO_CHARGES


@<TRIPOS>ATOM
      1 N          14.7930   26.9925   22.8975 N.am      2 SEC2        0.0000 
      2 N          14.8640   28.3480   22.4550 N.am     10 SEL2        0.0000 
      3 N          14.7220   25.6370   23.3400 N.am      6 SEP2        0.0000 
      4 CA         12.9690   26.5825   20.8995 C.3       4 GLC5        0.0000 
      5 CA         13.4360   28.1150   19.3250 C.3      12 GLL5        0.0000 
      6 CA         12.5020   25.0500   22.4740 C.3       8 GLP5        0.0000 
      7 CA         14.2030   28.7420   17.4630 C.3       4 GLC5        0.0000 
      8 CA         14.9700   29.3690   15.6010 C.3       8 GLP5        0.0000 
      9 CA         13.1840   29.7640   17.2760 C.3       4 GLC5        0.0000 
     10 CA         12.2480   29.1000   18.9510 C.3      12 GLL5        0.0000 
     11 CA         14.1200   30.4280   15.6010 C.3       8 GLP5        0.0000 
     12 O           9.6740   27.9220   20.3955 O.2       1 ALC1        0.0000 
     13 O          10.8790   28.5330   20.9380 O.2       9 ALL1        0.0000 
     14 O           8.4690   27.3110   19.8530 O.2       5 ALP1        0.0000 
     15 O          15.5235   26.5705   20.2675 O.2       1 ALC1        0.0000 
     16 O          15.7690   28.0420   19.9240 O.2       9 ALL1        0.0000 
     17 O          15.2780   25.0990   20.6110 O.2       5 ALP1        0.0000 
     18 N          19.6730   29.6185   20.5740 N.am      2 SEC2        0.0000 
     19 N          19.2700   28.1970   20.6130 N.am     10 SEL2        0.0000 
     20 N          20.0760   31.0400   20.5350 N.am      6 SEP2        0.0000 
     21 CA         20.7685   28.3285   22.4785 C.3       4 GLC5        0.0000 
     22 CA         18.9090   27.7930   21.9950 C.3      12 GLL5        0.0000 
     23 CA         22.6280   28.8640   22.9620 C.3       8 GLP5        0.0000 
     24 CA         20.1700   29.5220   21.3205 C.3       4 GLC5        0.0000 
     25 CA         21.4310   31.2510   20.6460 C.3       8 GLP5        0.0000 
     26 CA         18.4005   28.1685   23.6560 C.3       4 GLC5        0.0000 
     27 CA         17.8920   28.5440   25.3170 C.3       8 GLP5        0.0000 
     28 CA         19.9475   26.3980   22.4180 C.3       4 GLC5        0.0000 
     29 CA         20.9860   25.0030   22.8410 C.3       8 GLP5        0.0000 
     30 Zn         18.0790   26.6985   16.8765 Zn        3 ZIC7        0.0000 
     31 Zn         17.8450   27.8890   17.2140 Zn       11 ZIL7        0.0000 
     32 Zn         18.3130   25.5080   16.5390 Zn        7 ZIP7        0.0000 
     33 N          16.8995   28.7680   16.8675 N.am      2 SEC2        0.0000 
     34 N          17.8450   27.8890   17.2140 N.am     10 SEL2        0.0000 
     35 N          15.9540   29.6470   16.5210 N.am      6 SEP2        0.0000 
     36 Zn         20.9270   25.9270   17.0990 Zn        3 ZIC7        0.0000 
     37 Zn         20.1010   26.3280   17.7320 Zn       11 ZIL7        0.0000 
     38 Zn         21.7530   25.5260   16.4660 Zn        7 ZIP7        0.0000 
     39 Zn         19.2070   25.9180   17.1355 Zn        3 ZIC7        0.0000 
     40 O          19.7900   25.4175   18.6575 O.2       1 ALC1        0.0000 
     41 O          20.1010   26.3280   17.7320 O.2       9 ALL1        0.0000 
     42 O          19.4790   24.5070   19.5830 O.2       5 ALP1        0.0000 
     43 CA         22.1870   28.2615   15.0600 C.3       4 GLC5        0.0000 
     44 CA         20.6370   28.3620   16.4910 C.3      12 GLL5        0.0000 
     45 CA         23.7370   28.1610   13.6290 C.3       8 GLP5        0.0000 
     46 Zn         21.8015   26.6165   16.2640 Zn        3 ZIC7        0.0000 
     47 Zn         21.8500   27.7070   16.0620 Zn       11 ZIL7        0.0000 
     48 O          23.0035   28.2565   16.6065 O.2       1 ALC1        0.0000 
     49 O          21.8500   27.7070   16.0620 O.2       9 ALL1        0.0000 
     50 O          24.1570   28.8060   17.1510 O.2       5 ALP1        0.0000 
     51 CA         22.3300   29.6895   14.9680 C.3       4 GLC5        0.0000 
     52 CA         20.9120   29.8590   16.6410 C.3      12 GLL5        0.0000 
     53 CA         23.7480   29.5200   13.2950 C.3       8 GLP5        0.0000 
     54 CA         21.1715   30.5550   18.6435 C.3       4 GLC5        0.0000 
     55 CA         17.7215   32.1175   14.3300 C.3       4 GLC5        0.0000 
     56 CA         18.8720   32.9310   15.9660 C.3      12 GLL5        0.0000 
     57 CA         16.5710   31.3040   12.6940 C.3       8 GLP5        0.0000 
     58 CA         17.4360   33.9305   14.7355 C.3       4 GLC5        0.0000 
     59 CA         16.0000   34.9300   13.5050 C.3       8 GLP5        0.0000 
     60 CA         18.2405   34.2275   17.4015 C.3       4 GLC5        0.0000 
     61 CA         17.6090   35.5240   18.8370 C.3       8 GLP5        0.0000 
     62 CA         22.0650   32.1455   13.5150 C.3       4 GLC5        0.0000 
     63 CA         21.2530   32.7930   15.0490 C.3      12 GLL5        0.0000 
     64 CA         22.8770   31.4980   11.9810 C.3       8 GLP5        0.0000 
     65 CA         23.0345   33.3665   13.9955 C.3       4 GLC5        0.0000 
     66 CA         24.8160   33.9400   12.9420 C.3       8 GLP5        0.0000 
     67 CA         21.1515   33.8825   13.7410 C.3       4 GLC5        0.0000 
     68 CA         21.0500   34.9720   12.4330 C.3       8 GLP5        0.0000 
     69 CA         21.1315   32.0840   19.0855 C.3       4 GLC5        0.0000 
     70 CA         20.8320   32.9170   17.5250 C.3      12 GLL5        0.0000 
     71 CA         20.3630   34.7095   18.4070 C.3       4 GLC5        0.0000 
     72 CA         19.8940   36.5020   19.2890 C.3       8 GLP5        0.0000 
     73 N          18.6030   30.4680   20.2670 N.am      2 SEC2        0.0000 
     74 N          17.1300   29.8960   19.9990 N.am     10 SEL2        0.0000 
     75 CA         12.7390   27.2377   17.7560 C.3       4 GLC5        0.0000 
     76 CA         12.6360   25.8680   16.3740 C.3       8 GLP5        0.0000 
     77 CA         22.5410   33.4776   16.7950 C.3       4 GLC5        0.0000 
     78 CA         24.2810   34.2140   17.0190 C.3       8 GLP5        0.0000 
@<TRIPOS>BOND
@<TRIPOS>SUBSTRUCTURE
     1 ALC1       12 GROUP        1 X    ALC  0     ROOT ALC X 1
     2 SEC2        1 GROUP        1 X    SEC  0     **** SEC X 2
     3 ZIC7       30 GROUP        1 X    ZIC  0     **** ZIC X 5
     4 GLC5        4 GROUP        1 X    GLC  0     **** GLC X 6
     5 ALP1       14 GROUP        1 Y    ALP  0     ROOT ALP Y 8
     6 SEP2        3 GROUP        1 Y    SEP  0     **** SEP Y 9
     7 ZIP7       32 GROUP        1 Y    ZIP  0     **** ZIP Y 12
     8 GLP5        6 GROUP        1 Y    GLP  0     **** GLP Y 13
     9 ALL1       13 GROUP        1 Z    ALL  0     ROOT ALL Z 15
    10 SEL2        2 GROUP        1 Z    SEL  0     **** SEL Z 16
    11 ZIL7       31 GROUP        1 Z    ZIL  0     **** ZIL Z 19
    12 GLL5        5 GROUP        1 Z    GLL  0     **** GLL Z 20
@<TRIPOS>SET

