#    Name: 1qzy_TDE_1_ligand
#    Modification time : Tue Mar 25 00:12:45 2014

@<TRIPOS>MOLECULE
1qzy_TDE_1_ligand
   58    58     1     0     0
SMALL
NO_CHARGES


@<TRIPOS>ATOM
      1 C2         14.1910   28.9640   21.6390 C.2       1 TDE500      0.0000 
      2 O8         14.8640   28.3480   22.4550 O.2       1 TDE500      0.0000 
      3 C3         14.5510   28.8140   20.1430 C.3       1 TDE500      0.0000 
      4 C4         13.4360   28.1150   19.3250 C.3       1 TDE500      0.0000 
      5 C5         12.2480   29.1000   18.9510 C.3       1 TDE500      0.0000 
      6 C6         11.3900   29.6520   20.1600 C.3       1 TDE500      0.0000 
      7 C7         12.2500   30.5610   21.1470 C.3       1 TDE500      0.0000 
      8 N1         13.1380   29.7660   22.0600 N.am      1 TDE500      0.0000 
      9 O7         10.8790   28.5330   20.9380 O.3       1 TDE500      0.0000 
     10 N9         15.7690   28.0420   19.9240 N.am      1 TDE500      0.0000 
     11 C10        16.9900   28.6720   19.8680 C.2       1 TDE500      0.0000 
     12 C12        18.2380   27.8420   19.6400 C.3       1 TDE500      0.0000 
     13 O21        19.2700   28.1970   20.6130 O.3       1 TDE500      0.0000 
     14 C25        18.9090   27.7930   21.9950 C.3       1 TDE500      0.0000 
     15 C13        18.7580   28.2920   18.2250 C.3       1 TDE500      0.0000 
     16 O22        17.8450   27.8890   17.2140 O.3       1 TDE500      0.0000 
     17 C14        20.1670   27.7810   17.8520 C.3       1 TDE500      0.0000 
     18 O23        20.1010   26.3280   17.7320 O.3       1 TDE500      0.0000 
     19 C15        20.6370   28.3620   16.4910 C.3       1 TDE500      0.0000 
     20 O24        21.8500   27.7070   16.0620 O.3       1 TDE500      0.0000 
     21 C16        20.9120   29.8590   16.6410 C.2       1 TDE500      0.0000 
     22 C17        20.1280   30.8200   16.1080 C.2       1 TDE500      0.0000 
     23 C18        20.2870   32.3380   16.1850 C.3       1 TDE500      0.0000 
     24 C21        18.8720   32.9310   15.9660 C.3       1 TDE500      0.0000 
     25 C20        21.2530   32.7930   15.0490 C.3       1 TDE500      0.0000 
     26 C19        20.8320   32.9170   17.5250 C.3       1 TDE500      0.0000 
     27 O11        17.1300   29.8960   19.9990 O.2       1 TDE500      0.0000 
     28 H          14.6726   29.8116   19.7153 H         1 TDE500      0.0000 
     29 H          13.0217   27.2929   19.9035 H         1 TDE500      0.0000 
     30 H          13.8537   27.7254   18.3999 H         1 TDE500      0.0000 
     31 H          11.5732   28.5753   18.2577 H         1 TDE500      0.0000 
     32 H          12.6722   29.9574   18.4067 H         1 TDE500      0.0000 
     33 H          10.5983   30.2492   19.7735 H         1 TDE500      0.0000 
     34 H          11.5426   31.1653   21.7250 H         1 TDE500      0.0000 
     35 H          12.8433   31.2389   20.5239 H         1 TDE500      0.0000 
     36 H          12.9117   29.8516   23.0777 H         1 TDE500      0.0000 
     37 H          15.6758   27.0294   19.8159 H         1 TDE500      0.0000 
     38 H          18.0186   26.8350   19.6044 H         1 TDE500      0.0000 
     39 H          18.8124   29.3961   18.2482 H         1 TDE500      0.0000 
     40 H          20.8544   28.0709   18.6077 H         1 TDE500      0.0000 
     41 H          19.8470   28.2302   15.7806 H         1 TDE500      0.0000 
     42 H          21.7663   30.0739   17.1963 H         1 TDE500      0.0000 
     43 H          19.2536   30.5428   15.5380 H         1 TDE500      0.0000 
     44 H          19.6220   28.0384   22.6519 H         1 TDE500      0.0000 
     45 H          18.0644   28.2319   22.3016 H         1 TDE500      0.0000 
     46 H          18.7697   26.8055   22.0689 H         1 TDE500      0.0000 
     47 H          18.8786   33.9304   16.0012 H         1 TDE500      0.0000 
     48 H          18.4940   32.6715   15.0773 H         1 TDE500      0.0000 
     49 H          18.2261   32.6174   16.6620 H         1 TDE500      0.0000 
     50 H          22.1546   32.3693   15.1363 H         1 TDE500      0.0000 
     51 H          20.9021   32.5517   14.1442 H         1 TDE500      0.0000 
     52 H          21.3927   33.7832   15.0547 H         1 TDE500      0.0000 
     53 H          21.7410   32.5606   17.7411 H         1 TDE500      0.0000 
     54 H          20.9073   33.9137   17.4956 H         1 TDE500      0.0000 
     55 H          20.2374   32.6907   18.2965 H         1 TDE500      0.0000 
     56 H          10.0570   28.2347   20.4531 H         1 TDE500      0.0000 
     57 H          19.8427   26.0047   18.6424 H         1 TDE500      0.0000 
     58 H          22.5868   28.1947   16.5302 H         1 TDE500      0.0000 
@<TRIPOS>BOND
     1    2    1 2    
     2    3    1 1    
     3    8    1 am   
     4    4    3 1    
     5   10    3 1    
     6   28    3 1    
     7    5    4 1    
     8   29    4 1    
     9   30    4 1    
    10    6    5 1    
    11   31    5 1    
    12   32    5 1    
    13    7    6 1    
    14    9    6 1    
    15   33    6 1    
    16    8    7 1    
    17   34    7 1    
    18   35    7 1    
    19   36    8 1    
    20   56    9 1    
    21   11   10 am   
    22   37   10 1    
    23   12   11 1    
    24   27   11 2    
    25   13   12 1    
    26   15   12 1    
    27   38   12 1    
    28   14   13 1    
    29   44   14 1    
    30   45   14 1    
    31   46   14 1    
    32   16   15 1    
    33   17   15 1    
    34   39   15 1    
    35   18   17 1    
    36   19   17 1    
    37   40   17 1    
    38   57   18 1    
    39   20   19 1    
    40   21   19 1    
    41   41   19 1    
    42   58   20 1    
    43   22   21 2    
    44   42   21 1    
    45   23   22 1    
    46   43   22 1    
    47   24   23 1    
    48   25   23 1    
    49   26   23 1    
    50   47   24 1    
    51   48   24 1    
    52   49   24 1    
    53   50   25 1    
    54   51   25 1    
    55   52   25 1    
    56   53   26 1    
    57   54   26 1    
    58   55   26 1    
@<TRIPOS>SUBSTRUCTURE
     1 TDE500      1 GROUP   
@<TRIPOS>SET

