#    Name: 2d32_ANP_2_INTS_M
#    Modification time : Tue Mar 25 04:03:55 2014

@<TRIPOS>MOLECULE
2d32_ANP_2_INTS_M
   69     0    15     0     0
SMALL
NO_CHARGES


@<TRIPOS>ATOM
      1 Zn         18.0435   75.3315    1.0250 Zn        4 ZIC7        0.0000 
      2 Zn         19.1160   75.3890    0.8490 Zn       14 ZIL7        0.0000 
      3 Zn         16.9710   75.2740    1.2010 Zn        9 ZIP7        0.0000 
      4 Zn         19.3770   75.5570    3.8330 Zn        4 ZIC7        0.0000 
      5 Zn         19.9830   76.2060    3.1050 Zn       14 ZIL7        0.0000 
      6 Zn         18.7710   74.9080    4.5610 Zn        9 ZIP7        0.0000 
      7 N          20.7515   77.1010    3.9010 N.am      2 SEC2        0.0000 
      8 N          19.9830   76.2060    3.1050 N.am     12 SEL2        0.0000 
      9 N          21.5200   77.9960    4.6970 N.am      7 SEP2        0.0000 
     10 Zn         18.3785   76.1685    4.4060 Zn        4 ZIC7        0.0000 
     11 Zn         17.9860   77.4290    4.2510 Zn       14 ZIL7        0.0000 
     12 NZ         19.5275   80.1900    4.3370 N.4       3 LYC4        0.0000 
     13 NZ         18.4660   79.8700    3.4710 N.4      13 LYL4        0.0000 
     14 NZ         20.5890   80.5100    5.2030 N.4       8 LYP4        0.0000 
     15 N          19.5275   80.1900    4.3370 N.am      2 SEC2        0.0000 
     16 N          18.4660   79.8700    3.4710 N.am     12 SEL2        0.0000 
     17 N          20.5890   80.5100    5.2030 N.am      7 SEP2        0.0000 
     18 Zn         16.2970   75.9645    1.5720 Zn        4 ZIC7        0.0000 
     19 Zn         15.6230   76.6550    1.9430 Zn       14 ZIL7        0.0000 
     20 CA         14.3400   76.8915    8.2750 C.3       5 GLC5        0.0000 
     21 CA         13.7100   77.5740    6.3020 C.3      15 GLL5        0.0000 
     22 CA         14.9700   76.2090   10.2480 C.3      10 GLP5        0.0000 
     23 O          10.7920   75.6605    6.1570 O.2       1 ALC1        0.0000 
     24 O          12.1940   75.7550    6.3900 O.2      11 ALL1        0.0000 
     25 O           9.3900   75.5660    5.9240 O.2       6 ALP1        0.0000 
     26 CA          9.7495   78.0865    8.3195 C.3       5 GLC5        0.0000 
     27 CA         11.5290   77.9750    7.2020 C.3      15 GLL5        0.0000 
     28 CA          7.9700   78.1980    9.4370 C.3      10 GLP5        0.0000 
     29 O           9.8810   76.4470    6.8175 O.2       1 ALC1        0.0000 
     30 O          10.3720   77.3280    7.7110 O.2      11 ALL1        0.0000 
     31 CA         13.7745   77.1920    9.2595 C.3       5 GLC5        0.0000 
     32 CA         12.5790   78.1750    8.2710 C.3      15 GLL5        0.0000 
     33 CA         14.4840   78.9220    8.9965 C.3       5 GLC5        0.0000 
     34 CA         16.3890   79.6690    9.7220 C.3      10 GLP5        0.0000 
     35 CA         10.7000   80.3120   13.6220 C.3       5 GLC5        0.0000 
     36 CA         12.2240   81.2040   12.2350 C.3      15 GLL5        0.0000 
     37 CA          9.1760   79.4200   15.0090 C.3      10 GLP5        0.0000 
     38 CA         12.9345   81.0970   14.1285 C.3       5 GLC5        0.0000 
     39 CA         13.6450   80.9900   16.0220 C.3      10 GLP5        0.0000 
     40 O          12.1580   81.7060   14.1355 O.2       1 ALC1        0.0000 
     41 O          12.0320   82.4730   12.6360 O.2      11 ALL1        0.0000 
     42 O          12.2840   80.9390   15.6350 O.2       6 ALP1        0.0000 
     43 O          12.2830   84.0645   11.9750 O.2       1 ALC1        0.0000 
     44 O          12.5340   85.6560   11.3140 O.2       6 ALP1        0.0000 
     45 N          12.3475   80.5710   14.3885 N.am      2 SEC2        0.0000 
     46 N          12.4110   80.2030   13.1420 N.am     12 SEL2        0.0000 
     47 N          12.2840   80.9390   15.6350 N.am      7 SEP2        0.0000 
     48 CA         10.8925   79.1780   13.8715 C.3       5 GLC5        0.0000 
     49 CA         12.6090   78.9360   12.7340 C.3      15 GLL5        0.0000 
     50 CA         11.5940   77.2005   12.9655 C.3       5 GLC5        0.0000 
     51 CA         10.5790   75.4650   13.1970 C.3      10 GLP5        0.0000 
     52 CA         10.7235   79.2355   12.0730 C.3       5 GLC5        0.0000 
     53 CA          8.8380   79.5350   11.4120 C.3      10 GLP5        0.0000 
     54 CA         13.7895   77.5725   11.4910 C.3       5 GLC5        0.0000 
     55 CA         13.7310   77.7765   13.8515 C.3       5 GLC5        0.0000 
     56 CA         14.8530   76.6170   14.9690 C.3      10 GLP5        0.0000 
     57 CA         13.1270   79.9630   14.3780 C.3       5 GLC5        0.0000 
     58 CA         14.2015   80.0000   12.9785 C.3       5 GLC5        0.0000 
     59 CA         15.7940   81.0640   13.2230 C.3      10 GLP5        0.0000 
     60 CA         13.7035   77.8310   10.3415 C.3       5 GLC5        0.0000 
     61 CA         12.4370   79.4530   10.4350 C.3      15 GLL5        0.0000 
     62 CA         12.5145   76.4979    4.4536 C.3       5 GLC5        0.0000 
     63 CA         12.2630   77.1540    6.1580 C.3      15 GLL5        0.0000 
     64 CA         11.9230   75.4210    2.9730 C.3      10 GLP5        0.0000 
     65 CA         11.6918   76.2369    8.5187 C.3       5 GLC5        0.0000 
     66 CA         11.1460   74.6040    9.5620 C.3      10 GLP5        0.0000 
     67 CA         14.0095   81.0505   12.3670 C.3       5 GLC5        0.0000 
     68 CA         12.2260   80.8700   10.7870 C.3      15 GLL5        0.0000 
     69 CA         10.5845   79.8900   11.1925 C.3       5 GLC5        0.0000 
@<TRIPOS>BOND
@<TRIPOS>SUBSTRUCTURE
     1 ALC1       23 GROUP        1 X    ALC  0     ROOT ALC X 1
     2 SEC2        7 GROUP        1 X    SEC  0     **** SEC X 2
     3 LYC4       12 GROUP        1 X    LYC  0     **** LYC X 4
     4 ZIC7        1 GROUP        1 X    ZIC  0     **** ZIC X 5
     5 GLC5       20 GROUP        1 X    GLC  0     **** GLC X 6
     6 ALP1       25 GROUP        1 Y    ALP  0     ROOT ALP Y 8
     7 SEP2        9 GROUP        1 Y    SEP  0     **** SEP Y 9
     8 LYP4       14 GROUP        1 Y    LYP  0     **** LYP Y 11
     9 ZIP7        3 GROUP        1 Y    ZIP  0     **** ZIP Y 12
    10 GLP5       22 GROUP        1 Y    GLP  0     **** GLP Y 13
    11 ALL1       24 GROUP        1 Z    ALL  0     ROOT ALL Z 15
    12 SEL2        8 GROUP        1 Z    SEL  0     **** SEL Z 16
    13 LYL4       13 GROUP        1 Z    LYL  0     **** LYL Z 18
    14 ZIL7        2 GROUP        1 Z    ZIL  0     **** ZIL Z 19
    15 GLL5       21 GROUP        1 Z    GLL  0     **** GLL Z 20
@<TRIPOS>SET

