#    Name: 2d32_ANP_2_ligand
#    Modification time : Tue Mar 25 04:03:55 2014

@<TRIPOS>MOLECULE
2d32_ANP_2_ligand
   43    45     1     0     0
SMALL
NO_CHARGES


@<TRIPOS>ATOM
      1 PG         19.7160   76.5550    1.6510 P.3       1 ANP2521     0.0000 
      2 O1G        19.1160   75.3890    0.8490 O.co2     1 ANP2521     0.0000 
      3 O2G        20.9450   77.1430    0.9670 O.co2     1 ANP2521     0.0000 
      4 O3G        19.9830   76.2060    3.1050 O.co2     1 ANP2521     0.0000 
      5 PB         17.8610   78.5050    3.1630 P.3       1 ANP2521     0.0000 
      6 O1B        17.9860   77.4290    4.2510 O.co2     1 ANP2521     0.0000 
      7 O2B        18.4660   79.8700    3.4710 O.co2     1 ANP2521     0.0000 
      8 N3B        18.5260   77.8420    1.6940 N.4       1 ANP2521     0.0000 
      9 PA         15.0740   77.9320    2.5690 P.3       1 ANP2521     0.0000 
     10 O1A        13.9720   78.6580    1.7940 O.co2     1 ANP2521     0.0000 
     11 O2A        15.6230   76.6550    1.9430 O.co2     1 ANP2521     0.0000 
     12 O3A        16.3110   78.9440    2.9260 O.3       1 ANP2521     0.0000 
     13 O5'        14.5260   77.5100    4.0630 O.3       1 ANP2521     0.0000 
     14 C5'        14.1880   78.4170    5.1190 C.3       1 ANP2521     0.0000 
     15 C4'        13.7100   77.5740    6.3020 C.3       1 ANP2521     0.0000 
     16 O4'        13.7830   78.3040    7.5320 O.3       1 ANP2521     0.0000 
     17 C3'        12.2630   77.1540    6.1580 C.3       1 ANP2521     0.0000 
     18 O3'        12.1940   75.7550    6.3900 O.3       1 ANP2521     0.0000 
     19 C2'        11.5290   77.9750    7.2020 C.3       1 ANP2521     0.0000 
     20 O2'        10.3720   77.3280    7.7110 O.3       1 ANP2521     0.0000 
     21 C1'        12.5790   78.1750    8.2710 C.3       1 ANP2521     0.0000 
     22 N9         12.3930   79.3930    9.0940 N.pl3     1 ANP2521     0.0000 
     23 C8         12.1870   80.6460    8.6140 C.2       1 ANP2521     0.0000 
     24 N7         12.0850   81.5380    9.6250 N.2       1 ANP2521     0.0000 
     25 C5         12.2260   80.8700   10.7870 C.ar      1 ANP2521     0.0000 
     26 C6         12.2240   81.2040   12.2350 C.ar      1 ANP2521     0.0000 
     27 N6         12.0320   82.4730   12.6360 N.pl3     1 ANP2521     0.0000 
     28 N1         12.4110   80.2030   13.1420 N.ar      1 ANP2521     0.0000 
     29 C2         12.6090   78.9360   12.7340 C.ar      1 ANP2521     0.0000 
     30 N3         12.6300   78.5710   11.4440 N.ar      1 ANP2521     0.0000 
     31 C4         12.4370   79.4530   10.4350 C.ar      1 ANP2521     0.0000 
     32 H          13.3825   79.0867    4.8366 H         1 ANP2521     0.0000 
     33 H          15.0444   78.9978    5.4449 H         1 ANP2521     0.0000 
     34 H          14.3124   76.6781    6.3612 H         1 ANP2521     0.0000 
     35 H          11.9344   77.4424    5.1921 H         1 ANP2521     0.0000 
     36 H          11.3236   78.9390    6.7698 H         1 ANP2521     0.0000 
     37 H          12.6153   77.2985    8.8832 H         1 ANP2521     0.0000 
     38 H          12.1215   80.8705    7.6631 H         1 ANP2521     0.0000 
     39 H          11.8730   83.1440   11.9118 H         1 ANP2521     0.0000 
     40 H          12.0653   82.6325   13.6226 H         1 ANP2521     0.0000 
     41 H          12.7567   78.1844   13.4771 H         1 ANP2521     0.0000 
     42 H          11.2335   75.5161    6.2470 H         1 ANP2521     0.0000 
     43 H          10.0592   76.7356    6.9686 H         1 ANP2521     0.0000 
@<TRIPOS>BOND
     1    2    1 ar   
     2    3    1 ar   
     3    4    1 ar   
     4    8    1 1    
     5    6    5 ar   
     6    7    5 ar   
     7    8    5 1    
     8   12    5 1    
     9   10    9 ar   
    10   11    9 ar   
    11   12    9 1    
    12   13    9 1    
    13   14   13 1    
    14   15   14 1    
    15   32   14 1    
    16   33   14 1    
    17   16   15 1    
    18   17   15 1    
    19   34   15 1    
    20   21   16 1    
    21   18   17 1    
    22   19   17 1    
    23   35   17 1    
    24   42   18 1    
    25   20   19 1    
    26   21   19 1    
    27   36   19 1    
    28   43   20 1    
    29   22   21 1    
    30   37   21 1    
    31   23   22 1    
    32   31   22 1    
    33   24   23 2    
    34   38   23 1    
    35   25   24 1    
    36   26   25 ar   
    37   31   25 ar   
    38   27   26 1    
    39   28   26 ar   
    40   39   27 1    
    41   40   27 1    
    42   29   28 ar   
    43   30   29 ar   
    44   41   29 1    
    45   31   30 ar   
@<TRIPOS>SUBSTRUCTURE
     1 ANP2521     1 GROUP   
@<TRIPOS>SET

