#    Name: 3w2u_ROU_2_INTS_M
#    Modification time : Tue Mar 25 02:06:56 2014

@<TRIPOS>MOLECULE
3w2u_ROU_2_INTS_M
   63     0    12     0     0
SMALL
NO_CHARGES


@<TRIPOS>ATOM
      1 NZ         -7.7640  -16.2250   15.1030 N.4       3 LYC4        0.0000 
      2 NZ         -6.3010  -15.8170   14.4020 N.4      11 LYL4        0.0000 
      3 NZ         -9.2270  -16.6330   15.8040 N.4       7 LYP4        0.0000 
      4 N          -5.8725  -17.1255   13.7755 N.am      2 SEC2        0.0000 
      5 N          -6.3010  -15.8170   14.4020 N.am     10 SEL2        0.0000 
      6 N          -5.4440  -18.4340   13.1490 N.am      6 SEP2        0.0000 
      7 N          -3.5695  -16.4300   14.3160 N.am      2 SEC2        0.0000 
      8 N          -4.1900  -14.9570   14.2850 N.am     10 SEL2        0.0000 
      9 N          -2.9490  -17.9030   14.3470 N.am      6 SEP2        0.0000 
     10 N          -3.2305  -15.6720   15.3640 N.am      2 SEC2        0.0000 
     11 N          -2.2710  -16.3870   16.4430 N.am      6 SEP2        0.0000 
     12 CA         -7.2315  -13.3450   16.0500 C.3       4 GLC5        0.0000 
     13 CA         -5.9960  -13.4970   14.2230 C.3      12 GLL5        0.0000 
     14 CA         -8.4670  -13.1930   17.8770 C.3       8 GLP5        0.0000 
     15 O          -4.5305  -13.0205   16.3255 O.2       1 ALC1        0.0000 
     16 O          -5.5430  -12.6800   15.2700 O.2       9 ALL1        0.0000 
     17 O          -3.5180  -13.3610   17.3810 O.2       5 ALP1        0.0000 
     18 N          -4.8090  -11.1265   17.3870 N.am      2 SEC2        0.0000 
     19 N          -5.5010  -10.6810   16.2060 N.am     10 SEL2        0.0000 
     20 N          -4.1170  -11.5720   18.5680 N.am      6 SEP2        0.0000 
     21 O          -7.1375   -9.6035   14.4485 O.2       1 ALC1        0.0000 
     22 O          -6.8130  -10.8840   14.3960 O.2       9 ALL1        0.0000 
     23 O          -7.4620   -8.3230   14.5010 O.2       5 ALP1        0.0000 
     24 N          -9.1990  -11.2870   11.5215 N.am      2 SEC2        0.0000 
     25 N          -8.0510  -11.1400   12.5400 N.am     10 SEL2        0.0000 
     26 N         -10.3470  -11.4340   10.5030 N.am      6 SEP2        0.0000 
     27 N          -8.4705   -9.8245   12.6285 N.am      2 SEC2        0.0000 
     28 N          -8.8900   -8.5090   12.7170 N.am      6 SEP2        0.0000 
     29 CA         -8.3470  -15.5765   11.9150 C.3       4 GLC5        0.0000 
     30 CA         -7.2960  -13.8930   12.2220 C.3      12 GLL5        0.0000 
     31 CA         -9.3980  -17.2600   11.6080 C.3       8 GLP5        0.0000 
     32 CA         -7.6275  -15.3985   10.0745 C.3       4 GLC5        0.0000 
     33 CA         -6.8620  -13.4520   10.7900 C.3      12 GLL5        0.0000 
     34 CA         -8.3930  -17.3450    9.3590 C.3       8 GLP5        0.0000 
     35 CA         -6.5335  -17.2915    8.8420 C.3       4 GLC5        0.0000 
     36 CA         -4.6740  -17.2380    8.3250 C.3      12 GLL5        0.0000 
     37 CA         -5.5315  -17.5815    6.8895 C.3       4 GLC5        0.0000 
     38 CA         -6.3890  -17.9250    5.4540 C.3       8 GLP5        0.0000 
     39 CA         -2.7270  -15.2835    7.1925 C.3       4 GLC5        0.0000 
     40 CA         -2.6190  -16.9840    8.4540 C.3      12 GLL5        0.0000 
     41 CA         -2.8350  -13.5830    5.9310 C.3       8 GLP5        0.0000 
     42 CA          1.1755  -13.6875   11.7535 C.3       4 GLC5        0.0000 
     43 CA         -0.7210  -13.1370   11.1840 C.3      12 GLL5        0.0000 
     44 CA          3.0720  -14.2380   12.3230 C.3       8 GLP5        0.0000 
     45 CA         -2.9450  -12.3665    8.1245 C.3       4 GLC5        0.0000 
     46 CA         -1.8920  -11.7450    9.5610 C.3      12 GLL5        0.0000 
     47 CA         -3.9980  -12.9880    6.6880 C.3       8 GLP5        0.0000 
     48 CA         -4.6940  -13.7440    8.4742 C.3       4 GLC5        0.0000 
     49 CA         -5.5380  -13.8590   10.5290 C.3      12 GLL5        0.0000 
     50 CA         -5.8140  -16.8110   10.5718 C.3       4 GLC5        0.0000 
     51 CA         -5.2420  -15.1410    9.9920 C.3      12 GLL5        0.0000 
     52 CA         -7.0420  -18.2500   11.2810 C.3       8 GLP5        0.0000 
     53 CA         -6.6780  -14.1966    8.6209 C.3       4 GLC5        0.0000 
     54 CA         -7.6350  -13.9950    6.9160 C.3       8 GLP5        0.0000 
     55 CA         -3.7013  -14.0740    8.2745 C.3       4 GLC5        0.0000 
     56 CA         -3.9300  -15.6030    9.7330 C.3      12 GLL5        0.0000 
     57 CA         -3.3527  -18.0650   11.3830 C.3       4 GLC5        0.0000 
     58 CA         -3.7150  -16.9300    9.1680 C.3      12 GLL5        0.0000 
     59 CA         -3.0130  -18.7060   13.1200 C.3       8 GLP5        0.0000 
     60 CA         -5.3673  -17.8370   10.4635 C.3       4 GLC5        0.0000 
     61 CA         -3.6700  -17.9180   10.1240 C.3      12 GLL5        0.0000 
     62 CA         -3.9003  -13.1043    8.6653 C.3       4 GLC5        0.0000 
     63 CA         -4.4650  -13.0110   10.7760 C.3      12 GLL5        0.0000 
@<TRIPOS>BOND
@<TRIPOS>SUBSTRUCTURE
     1 ALC1       15 GROUP        1 X    ALC  0     ROOT ALC X 1
     2 SEC2        4 GROUP        1 X    SEC  0     **** SEC X 2
     3 LYC4        1 GROUP        1 X    LYC  0     **** LYC X 4
     4 GLC5       12 GROUP        1 X    GLC  0     **** GLC X 6
     5 ALP1       17 GROUP        1 Y    ALP  0     ROOT ALP Y 8
     6 SEP2        6 GROUP        1 Y    SEP  0     **** SEP Y 9
     7 LYP4        3 GROUP        1 Y    LYP  0     **** LYP Y 11
     8 GLP5       14 GROUP        1 Y    GLP  0     **** GLP Y 13
     9 ALL1       16 GROUP        1 Z    ALL  0     ROOT ALL Z 15
    10 SEL2        5 GROUP        1 Z    SEL  0     **** SEL Z 16
    11 LYL4        2 GROUP        1 Z    LYL  0     **** LYL Z 18
    12 GLL5       13 GROUP        1 Z    GLL  0     **** GLL Z 20
@<TRIPOS>SET

