#    Name: 3w2u_ROU_2_ligand
#    Modification time : Tue Mar 25 02:06:56 2014

@<TRIPOS>MOLECULE
3w2u_ROU_2_ligand
   36    37     1     0     0
SMALL
NO_CHARGES


@<TRIPOS>ATOM
      1 OAA        -6.3010  -15.8170   14.4020 O.co2     1 ROU401      0.0000 
      2 CAR        -5.4840  -14.8280   14.2570 C.2       1 ROU401      0.0000 
      3 OAD        -4.1900  -14.9570   14.2850 O.co2     1 ROU401      0.0000 
      4 CAV        -5.9960  -13.4970   14.2230 C.2       1 ROU401      0.0000 
      5 NAP        -5.5430  -12.6800   15.2700 N.am      1 ROU401      0.0000 
      6 CAX        -5.9300  -11.3690   15.3200 C.2       1 ROU401      0.0000 
      7 OAB        -5.5010  -10.6810   16.2060 O.2       1 ROU401      0.0000 
      8 NAQ        -6.8130  -10.8840   14.3960 N.am      1 ROU401      0.0000 
      9 CAY        -7.2860  -11.6660   13.3510 C.2       1 ROU401      0.0000 
     10 OAC        -8.0510  -11.1400   12.5400 O.2       1 ROU401      0.0000 
     11 CAW        -6.8730  -13.0090   13.2470 C.2       1 ROU401      0.0000 
     12 CAO        -7.2960  -13.8930   12.2220 C.3       1 ROU401      0.0000 
     13 CAN        -6.8620  -13.4520   10.7900 C.3       1 ROU401      0.0000 
     14 CAS        -5.5380  -13.8590   10.5290 C.ar      1 ROU401      0.0000 
     15 CAK        -5.2420  -15.1410    9.9920 C.ar      1 ROU401      0.0000 
     16 CAT        -3.9300  -15.6030    9.7330 C.ar      1 ROU401      0.0000 
     17 CAZ        -3.7150  -16.9300    9.1680 C.3       1 ROU401      0.0000 
     18 FAF        -4.6740  -17.2380    8.3250 F         1 ROU401      0.0000 
     19 FAG        -2.6190  -16.9840    8.4540 F         1 ROU401      0.0000 
     20 FAE        -3.6700  -17.9180   10.1240 F         1 ROU401      0.0000 
     21 CAM        -2.8790  -14.7170    9.9890 C.ar      1 ROU401      0.0000 
     22 CAU        -3.1400  -13.4300   10.5090 C.ar      1 ROU401      0.0000 
     23 CBA        -2.0640  -12.5010   10.7550 C.3       1 ROU401      0.0000 
     24 FAI        -0.7210  -13.1370   11.1840 F         1 ROU401      0.0000 
     25 FAJ        -1.8920  -11.7450    9.5610 F         1 ROU401      0.0000 
     26 FAH        -2.4760  -11.5850   11.7600 F         1 ROU401      0.0000 
     27 CAL        -4.4650  -13.0110   10.7760 C.ar      1 ROU401      0.0000 
     28 H          -4.9249  -13.0791   15.9869 H         1 ROU401      0.0000 
     29 H          -7.1476   -9.8956   14.4706 H         1 ROU401      0.0000 
     30 H          -8.4023  -14.0007   12.1953 H         1 ROU401      0.0000 
     31 H          -6.8978  -14.9208   12.3679 H         1 ROU401      0.0000 
     32 H          -6.9856  -12.3612   10.7464 H         1 ROU401      0.0000 
     33 H          -7.5859  -13.8947   10.0922 H         1 ROU401      0.0000 
     34 H          -6.0433  -15.7791    9.7763 H         1 ROU401      0.0000 
     35 H          -1.9102  -14.9976    9.8001 H         1 ROU401      0.0000 
     36 H          -4.6237  -12.0686   11.1561 H         1 ROU401      0.0000 
@<TRIPOS>BOND
     1    2    1 ar   
     2    3    2 ar   
     3    4    2 1    
     4    5    4 1    
     5   11    4 2    
     6    6    5 am   
     7   28    5 1    
     8    7    6 2    
     9    8    6 am   
    10    9    8 am   
    11   29    8 1    
    12   10    9 2    
    13   11    9 1    
    14   12   11 1    
    15   13   12 1    
    16   30   12 1    
    17   31   12 1    
    18   14   13 1    
    19   32   13 1    
    20   33   13 1    
    21   15   14 ar   
    22   27   14 ar   
    23   16   15 ar   
    24   34   15 1    
    25   17   16 1    
    26   21   16 ar   
    27   18   17 1    
    28   19   17 1    
    29   20   17 1    
    30   22   21 ar   
    31   35   21 1    
    32   23   22 1    
    33   27   22 ar   
    34   24   23 1    
    35   25   23 1    
    36   26   23 1    
    37   36   27 1    
@<TRIPOS>SUBSTRUCTURE
     1 ROU401      1 GROUP   
@<TRIPOS>SET

