#    Name: 4GVQ_1_CAVITY_N1_ALL.mol2
#    Modification time : Tue Mar 11 00:51:04 2014

@<TRIPOS>MOLECULE
4GVQ_1_CAVITY_N1_ALL.mol2
   83     0     6     0     0
SMALL
NO_CHARGES


@<TRIPOS>ATOM
      1 CA         18.1642  -21.3529  -10.5420 C.3       5 GLY6        0.0000 
      2 CA         17.4936  -20.0123  -10.4870 C.3       5 GLY6        0.0000 
      3 DU         18.9288  -21.0216   -9.2948 H         6 CUB7        0.0000 
      4 DU         18.2582  -19.6810   -9.2398 H         6 CUB7        0.0000 
      5 CZ         15.6157  -24.6278   -2.6979 C.ar      4 PHE5        0.0000 
      6 CZ         14.9451  -23.2871   -2.6429 C.ar      4 PHE5        0.0000 
      7 CZ         14.8511  -24.9591   -3.9452 C.ar      4 PHE5        0.0000 
      8 CA         14.1805  -23.6184   -3.8902 C.3       5 GLY6        0.0000 
      9 N          13.5099  -22.2778   -3.8352 N.2       1 ALA2        0.0000 
     10 CZ         15.2777  -24.8821   -0.6192 C.ar      4 PHE5        0.0000 
     11 NZ         15.1837  -26.5540   -1.9214 N.2       3 LYS4        0.0000 
     12 CZ         14.5131  -25.2134   -1.8664 C.ar      4 PHE5        0.0000 
     13 CZ         13.8425  -23.8728   -1.8114 C.ar      4 PHE5        0.0000 
     14 NZ         13.7485  -25.5447   -3.1137 N.2       3 LYS4        0.0000 
     15 O          13.0779  -24.2041   -3.0587 O.2       1 ALA2        0.0000 
     16 CZ         16.0477  -22.7015   -3.4744 C.ar      4 PHE5        0.0000 
     17 CZ         15.3771  -21.3609   -3.4194 C.ar      4 PHE5        0.0000 
     18 CZ         15.2831  -23.0328   -4.7216 C.ar      4 PHE5        0.0000 
     19 N          14.6125  -21.6922   -4.6666 N.2       1 ALA2        0.0000 
     20 CA         13.8479  -22.0235   -5.9139 C.3       5 GLY6        0.0000 
     21 CZ         14.8457  -26.8083    0.1573 C.ar      4 PHE5        0.0000 
     22 CZ         14.1751  -25.4677    0.2123 C.ar      4 PHE5        0.0000 
     23 NZ         14.0811  -27.1396   -1.0899 N.2       3 LYS4        0.0000 
     24 DU         13.4105  -25.7990   -1.0350 H         6 CUB7        0.0000 
     25 CZ         12.7400  -24.4584   -0.9800 C.ar      4 PHE5        0.0000 
     26 NZ         12.6459  -26.1303   -2.2822 N.2       3 LYS4        0.0000 
     27 O          11.9753  -24.7897   -2.2272 O.2       1 ALA2        0.0000 
     28 CZ         17.9149  -21.7846   -3.0586 C.ar      4 PHE5        0.0000 
     29 CZ         17.2443  -20.4440   -3.0036 C.ar      4 PHE5        0.0000 
     30 CZ         16.5737  -19.1033   -2.9486 C.ar      4 PHE5        0.0000 
     31 CA         19.4495  -19.2727   -4.6666 C.3       5 GLY6        0.0000 
     32 N          18.7789  -17.9321   -4.6116 N.2       1 ALA2        0.0000 
     33 CA         19.3554  -20.9446   -5.9688 C.3       5 GLY6        0.0000 
     34 CA         18.6849  -19.6040   -5.9138 C.3       5 GLY6        0.0000 
     35 DU         18.0143  -18.2634   -5.8588 H         6 CUB7        0.0000 
     36 NZ         19.2614  -22.6165   -7.2711 N.2       3 LYS4        0.0000 
     37 CA         18.5908  -21.2759   -7.2161 C.3       5 GLY6        0.0000 
     38 DU         17.9202  -19.9353   -7.1611 H         6 CUB7        0.0000 
     39 OD1        17.8262  -21.6072   -8.4633 O.3       2 ASP3        0.0000 
     40 DU         17.1556  -20.2666   -8.4083 H         6 CUB7        0.0000 
     41 DU         16.4851  -18.9260   -8.3533 H         6 CUB7        0.0000 
     42 OD1        17.0616  -21.9385   -9.7106 O.3       2 ASP3        0.0000 
     43 CA         16.3910  -20.5979   -9.6556 C.3       5 GLY6        0.0000 
     44 CA         15.7204  -19.2573   -9.6006 C.3       5 GLY6        0.0000 
     45 CA         15.0499  -17.9166   -9.5456 C.3       5 GLY6        0.0000 
     46 CA         19.0175  -21.1990   -3.8901 C.3       5 GLY6        0.0000 
     47 N          18.3469  -19.8583   -3.8351 N.2       1 ALA2        0.0000 
     48 N          17.6763  -18.5177   -3.7801 N.2       1 ALA2        0.0000 
     49 N          17.0057  -17.1771   -3.7251 N.2       1 ALA2        0.0000 
     50 CA         18.2529  -21.5302   -5.1373 C.3       5 GLY6        0.0000 
     51 DU         17.5823  -20.1896   -5.0824 H         6 CUB7        0.0000 
     52 CZ         16.9117  -18.8490   -5.0274 C.ar      4 PHE5        0.0000 
     53 CZ         16.2411  -17.5084   -4.9724 C.ar      4 PHE5        0.0000 
     54 CZ         17.4883  -21.8615   -6.3846 C.ar      4 PHE5        0.0000 
     55 DU         16.8177  -20.5209   -6.3296 H         6 CUB7        0.0000 
     56 DU         16.1471  -19.1803   -6.2746 H         6 CUB7        0.0000 
     57 CZ         15.4765  -17.8397   -6.2196 C.ar      4 PHE5        0.0000 
     58 CZ         14.8059  -16.4990   -6.1646 C.ar      4 PHE5        0.0000 
     59 OD1        16.7237  -22.1928   -7.6318 O.3       2 ASP3        0.0000 
     60 OD1        16.0531  -20.8522   -7.5768 O.3       2 ASP3        0.0000 
     61 N          15.3825  -19.5116   -7.5218 N.2       1 ALA2        0.0000 
     62 N          14.7119  -18.1710   -7.4669 N.2       1 ALA2        0.0000 
     63 CA         15.2885  -21.1835   -8.8241 C.3       5 GLY6        0.0000 
     64 CA         14.6179  -19.8429   -8.7691 C.3       5 GLY6        0.0000 
     65 CZ         13.1666  -24.3814    2.3460 C.ar      4 PHE5        0.0000 
     66 N          13.0726  -26.0533    1.0438 N.2       1 ALA2        0.0000 
     67 CZ         12.4020  -24.7127    1.0988 C.ar      4 PHE5        0.0000 
     68 CZ         11.7314  -23.3721    1.1538 C.ar      4 PHE5        0.0000 
     69 CA         12.9786  -27.7253   -0.2585 C.3       5 GLY6        0.0000 
     70 CA         12.3080  -26.3846   -0.2035 C.3       5 GLY6        0.0000 
     71 CA         11.6374  -25.0440   -0.1485 C.3       5 GLY6        0.0000 
     72 CA         10.9668  -23.7034   -0.0935 C.3       5 GLY6        0.0000 
     73 CA         11.2994  -25.2983    1.9302 C.3       5 GLY6        0.0000 
     74 CZ         17.1503  -22.1159   -4.3059 C.ar      4 PHE5        0.0000 
     75 DU         16.4797  -20.7752   -4.2509 H         6 CUB7        0.0000 
     76 CZ         15.8091  -19.4346   -4.1959 C.ar      4 PHE5        0.0000 
     77 CZ         16.3857  -22.4472   -5.5531 C.ar      4 PHE5        0.0000 
     78 DU         15.7151  -21.1065   -5.4981 H         6 CUB7        0.0000 
     79 CZ         15.0445  -19.7659   -5.4431 C.ar      4 PHE5        0.0000 
     80 CZ         15.6211  -22.7785   -6.8004 C.ar      4 PHE5        0.0000 
     81 CA         14.9505  -21.4378   -6.7454 C.3       5 GLY6        0.0000 
     82 CA         14.2799  -20.0972   -6.6904 C.3       5 GLY6        0.0000 
     83 CA         14.1859  -21.7691   -7.9926 C.3       5 GLY6        0.0000 
@<TRIPOS>BOND
@<TRIPOS>SUBSTRUCTURE
     1 ALA2        9 GROUP   
     2 ASP3       39 GROUP   
     3 LYS4       11 GROUP   
     4 PHE5        5 GROUP   
     5 GLY6        1 GROUP   
     6 CUB7        3 GROUP   
@<TRIPOS>SET

