#    Name: 4gvq_N4M_1_INTS_M
#    Modification time : Mon Mar 24 23:51:24 2014

@<TRIPOS>MOLECULE
4gvq_N4M_1_INTS_M
   71     0    12     0     0
SMALL
NO_CHARGES


@<TRIPOS>ATOM
      1 CA         11.1755  -22.7165    1.1030 C.3       4 GLC5        0.0000 
      2 CA         11.7560  -24.8200    0.7820 C.3      12 GLL5        0.0000 
      3 CA         10.5950  -20.6130    1.4240 C.3       8 GLP5        0.0000 
      4 CA         11.5400  -26.3230    3.3405 C.3       4 GLC5        0.0000 
      5 CA         12.5960  -24.9420    1.9490 C.3      12 GLL5        0.0000 
      6 CA         10.4840  -27.7040    4.7320 C.3       8 GLP5        0.0000 
      7 O           9.3390  -22.8230    3.5495 O.2       1 ALC1        0.0000 
      8 O          10.7660  -23.2280    4.4010 O.2       9 ALL1        0.0000 
      9 O           7.9120  -22.4180    2.6980 O.2       5 ALP1        0.0000 
     10 O           9.6120  -22.3895    4.5395 O.2       1 ALC1        0.0000 
     11 O           8.4580  -21.5510    4.6780 O.2       5 ALP1        0.0000 
     12 N           9.0795  -23.0445    2.4500 N.am      2 SEC2        0.0000 
     13 N          10.2470  -23.6710    2.2020 N.am     10 SEL2        0.0000 
     14 N           7.9120  -22.4180    2.6980 N.am      6 SEP2        0.0000 
     15 O          14.4520  -25.9450    2.9335 O.2       1 ALC1        0.0000 
     16 O          13.7700  -25.5580    1.7430 O.2       9 ALL1        0.0000 
     17 O          15.1340  -26.3320    4.1240 O.2       5 ALP1        0.0000 
     18 CA         14.5565  -29.3870    0.5405 C.3       4 GLC5        0.0000 
     19 CA         13.8620  -27.7940    0.8700 C.3      12 GLL5        0.0000 
     20 CA         15.2510  -30.9800    0.2110 C.3       8 GLP5        0.0000 
     21 CA         15.9285  -25.5070   -0.5105 C.3       4 GLC5        0.0000 
     22 CA         14.2380  -25.4420   -1.8940 C.3      12 GLL5        0.0000 
     23 CA         17.6190  -25.5720    0.8730 C.3       8 GLP5        0.0000 
     24 CA         15.8625  -26.5325   -4.2775 C.3       4 GLC5        0.0000 
     25 CA         15.1680  -26.4840   -2.5110 C.3      12 GLL5        0.0000 
     26 CA         16.5570  -26.5810   -6.0440 C.3       8 GLP5        0.0000 
     27 CA         16.8055  -26.1045   -1.3740 C.3       4 GLC5        0.0000 
     28 CA         18.4430  -25.7250   -0.2370 C.3       8 GLP5        0.0000 
     29 CA         12.2790  -22.9145   -3.1275 C.3       4 GLC5        0.0000 
     30 CA         14.2700  -23.5030   -3.5160 C.3      12 GLL5        0.0000 
     31 CA         10.2880  -22.3260   -2.7390 C.3       8 GLP5        0.0000 
     32 CA         12.1020  -22.8205   -4.5440 C.3       4 GLC5        0.0000 
     33 CA         14.0320  -23.1110   -4.8400 C.3      12 GLL5        0.0000 
     34 CA         10.1720  -22.5300   -4.2480 C.3       8 GLP5        0.0000 
     35 CA         13.7885  -20.4985   -7.4690 C.3       4 GLC5        0.0000 
     36 CA         15.8590  -20.2320   -7.6790 C.3      12 GLL5        0.0000 
     37 CA         11.7180  -20.7650   -7.2590 C.3       8 GLP5        0.0000 
     38 CA         16.0545  -20.8460  -10.6240 C.3       4 GLC5        0.0000 
     39 CA         17.5210  -21.1500   -9.6150 C.3      12 GLL5        0.0000 
     40 CA         14.5880  -20.5420  -11.6330 C.3       8 GLP5        0.0000 
     41 CA         16.5690  -23.7920  -13.6630 C.3       4 GLC5        0.0000 
     42 CA         18.1670  -23.3280  -12.4330 C.3      12 GLL5        0.0000 
     43 CA         14.9710  -24.2560  -14.8930 C.3       8 GLP5        0.0000 
     44 N          16.1895  -24.1315  -12.4635 N.am      2 SEC2        0.0000 
     45 N          17.4690  -24.5980  -12.3600 N.am     10 SEL2        0.0000 
     46 N          14.9100  -23.6650  -12.5670 N.am      6 SEP2        0.0000 
     47 N          19.5115  -26.0685  -12.4750 N.am      2 SEC2        0.0000 
     48 N          19.3530  -24.9740  -13.6190 N.am     10 SEL2        0.0000 
     49 N          19.6700  -27.1630  -11.3310 N.am      6 SEP2        0.0000 
     50 NZ         22.5805  -28.1000  -16.8940 N.4       3 LYC4        0.0000 
     51 NZ         23.2450  -26.5420  -16.7010 N.4      11 LYL4        0.0000 
     52 NZ         21.9160  -29.6580  -17.0870 N.4       7 LYP4        0.0000 
     53 CA         11.0240  -26.3385    0.7203 C.3       4 GLC5        0.0000 
     54 CA          9.8720  -27.7960    0.0750 C.3       8 GLP5        0.0000 
     55 CA         13.7333  -28.3900    1.9090 C.3       4 GLC5        0.0000 
     56 CA         13.4960  -29.7160    3.1200 C.3       8 GLP5        0.0000 
     57 CA         15.7948  -26.3180    0.7855 C.3       4 GLC5        0.0000 
     58 CA         14.0790  -26.3340    0.5260 C.3      12 GLL5        0.0000 
     59 CA         11.7599  -27.1677    0.0205 C.3       4 GLC5        0.0000 
     60 CA         13.9420  -23.8581   -0.4870 C.3       4 GLC5        0.0000 
     61 CA         13.9140  -21.9080    0.0330 C.3       8 GLP5        0.0000 
     62 CA         13.0303  -21.6645   -6.1967 C.3       4 GLC5        0.0000 
     63 CA         13.6990  -23.7640   -5.8113 C.3       4 GLC5        0.0000 
     64 CA         14.6530  -22.0170   -5.4290 C.3      12 GLL5        0.0000 
     65 CA         12.9960  -24.8660   -6.8190 C.3       8 GLP5        0.0000 
     66 CA         15.2632  -18.4485   -4.6115 C.3       4 GLC5        0.0000 
     67 CA         16.2560  -20.0330   -5.3040 C.3      12 GLL5        0.0000 
     68 CA         14.2730  -17.2120   -3.3320 C.3       8 GLP5        0.0000 
     69 CA         15.4880  -20.6448   -9.7900 C.3       4 GLC5        0.0000 
     70 CA         18.4650  -22.2745  -14.4082 C.3       4 GLC5        0.0000 
     71 CA         18.0920  -21.0470  -16.0580 C.3       8 GLP5        0.0000 
@<TRIPOS>BOND
@<TRIPOS>SUBSTRUCTURE
     1 ALC1        7 GROUP        1 X    ALC  0     ROOT ALC X 1
     2 SEC2       12 GROUP        1 X    SEC  0     **** SEC X 2
     3 LYC4       50 GROUP        1 X    LYC  0     **** LYC X 4
     4 GLC5        1 GROUP        1 X    GLC  0     **** GLC X 6
     5 ALP1        9 GROUP        1 Y    ALP  0     ROOT ALP Y 8
     6 SEP2       14 GROUP        1 Y    SEP  0     **** SEP Y 9
     7 LYP4       52 GROUP        1 Y    LYP  0     **** LYP Y 11
     8 GLP5        3 GROUP        1 Y    GLP  0     **** GLP Y 13
     9 ALL1        8 GROUP        1 Z    ALL  0     ROOT ALL Z 15
    10 SEL2       13 GROUP        1 Z    SEL  0     **** SEL Z 16
    11 LYL4       51 GROUP        1 Z    LYL  0     **** LYL Z 18
    12 GLL5        2 GROUP        1 Z    GLL  0     **** GLL Z 20
@<TRIPOS>SET

