#    Name: 4gvq_N4M_1_ligand
#    Modification time : Mon Mar 24 23:51:24 2014

@<TRIPOS>MOLECULE
4gvq_N4M_1_ligand
   94    97     1     0     0
SMALL
NO_CHARGES


@<TRIPOS>ATOM
      1 N2         12.0660  -25.3110   -0.4890 N.3       1 N4M401      0.0000 
      2 C6         11.7560  -24.8200    0.7820 C.2       1 N4M401      0.0000 
      3 C7         12.5960  -24.9420    1.9490 C.2       1 N4M401      0.0000 
      4 N4         12.2540  -24.3800    3.1190 N.pl3     1 N4M401      0.0000 
      5 C8         11.0860  -23.7870    3.2440 C.2       1 N4M401      0.0000 
      6 N6         10.7660  -23.2280    4.4010 N.pl3     1 N4M401      0.0000 
      7 N5         10.2470  -23.6710    2.2020 N.2       1 N4M401      0.0000 
      8 C9         10.5110  -24.1340    0.9860 C.2       1 N4M401      0.0000 
      9 O1          9.7300  -23.9980    0.0250 O.2       1 N4M401      0.0000 
     10 N3         13.7700  -25.5580    1.7430 N.pl3     1 N4M401      0.0000 
     11 C2         14.0790  -26.3340    0.5260 C.3       1 N4M401      0.0000 
     12 C1         13.8620  -27.7940    0.8700 C.3       1 N4M401      0.0000 
     13 C3         13.3250  -26.0150   -0.7660 C.3       1 N4M401      0.0000 
     14 C4         14.2380  -25.4420   -1.8940 C.3       1 N4M401      0.0000 
     15 C31        15.1680  -26.4840   -2.5110 C.3       1 N4M401      0.0000 
     16 N1         13.6260  -24.6080   -2.9620 N.pl3     1 N4M401      0.0000 
     17 C10        14.2700  -23.5030   -3.5160 C.ar      1 N4M401      0.0000 
     18 C11        14.0320  -23.1110   -4.8400 C.ar      1 N4M401      0.0000 
     19 C12        14.6530  -22.0170   -5.4290 C.ar      1 N4M401      0.0000 
     20 C15        15.1870  -22.7090   -2.8100 C.ar      1 N4M401      0.0000 
     21 C14        15.8140  -21.5950   -3.3840 C.ar      1 N4M401      0.0000 
     22 C13        15.5480  -21.2340   -4.6970 C.ar      1 N4M401      0.0000 
     23 C16        16.2560  -20.0330   -5.3040 C.3       1 N4M401      0.0000 
     24 C17        16.2510  -19.3370   -6.4780 C.3       1 N4M401      0.0000 
     25 O16        15.4600  -18.1350   -6.5070 O.3       1 N4M401      0.0000 
     26 C18        15.8590  -20.2320   -7.6790 C.3       1 N4M401      0.0000 
     27 O15        15.0680  -19.4840   -8.6220 O.3       1 N4M401      0.0000 
     28 C19        16.9170  -21.2630   -8.2150 C.3       1 N4M401      0.0000 
     29 O14        18.0100  -21.4800   -7.2890 O.3       1 N4M401      0.0000 
     30 C20        17.5210  -21.1500   -9.6150 C.3       1 N4M401      0.0000 
     31 O2         17.6690  -22.4860  -10.1130 O.3       1 N4M401      0.0000 
     32 C21        18.6680  -22.6970  -11.1290 C.3       1 N4M401      0.0000 
     33 C22        18.1670  -23.3280  -12.4330 C.3       1 N4M401      0.0000 
     34 O13        17.4690  -24.5980  -12.3600 O.3       1 N4M401      0.0000 
     35 C23        19.5090  -23.6760  -13.0840 C.3       1 N4M401      0.0000 
     36 O12        19.3530  -24.9740  -13.6190 O.3       1 N4M401      0.0000 
     37 O3         19.8530  -23.4520  -10.7990 O.3       1 N4M401      0.0000 
     38 C24        20.6250  -23.5460  -12.0080 C.3       1 N4M401      0.0000 
     39 C25        21.5360  -22.2890  -12.1510 C.3       1 N4M401      0.0000 
     40 O4         22.8630  -22.4910  -12.7180 O.3       1 N4M401      0.0000 
     41 P          23.1410  -22.8790  -14.2640 P.3       1 N4M401      0.0000 
     42 O5         21.8820  -23.6150  -14.6960 O.co2     1 N4M401      0.0000 
     43 O6         23.6080  -21.7070  -15.1140 O.co2     1 N4M401      0.0000 
     44 O7         24.3310  -23.9800  -14.3920 O.3       1 N4M401      0.0000 
     45 C26        24.4470  -24.7630  -15.5900 C.3       1 N4M401      0.0000 
     46 C30        23.3660  -25.8360  -15.6750 C.2       1 N4M401      0.0000 
     47 O10        22.6200  -26.0490  -14.7140 O.co2     1 N4M401      0.0000 
     48 O11        23.2450  -26.5420  -16.7010 O.co2     1 N4M401      0.0000 
     49 C27        24.3960  -23.8200  -16.7910 C.3       1 N4M401      0.0000 
     50 C28        24.9070  -24.4300  -18.0810 C.3       1 N4M401      0.0000 
     51 C29        23.7410  -24.6910  -19.0200 C.2       1 N4M401      0.0000 
     52 O9         23.4680  -23.8710  -19.9390 O.co2     1 N4M401      0.0000 
     53 O8         23.1050  -25.7650  -18.8510 O.co2     1 N4M401      0.0000 
     54 H          12.9239  -24.4198    3.9237 H         1 N4M401      0.0000 
     55 H          11.4396  -23.3184    5.1346 H         1 N4M401      0.0000 
     56 H           9.8798  -22.7660    4.4363 H         1 N4M401      0.0000 
     57 H          14.5434  -25.5190    2.4499 H         1 N4M401      0.0000 
     58 H          15.1666  -26.2467    0.3124 H         1 N4M401      0.0000 
     59 H          13.0183  -27.0673   -1.1619 H         1 N4M401      0.0000 
     60 H          14.9751  -24.7328   -1.3337 H         1 N4M401      0.0000 
     61 H          12.6855  -24.8902   -3.2798 H         1 N4M401      0.0000 
     62 H          13.3531  -23.6725   -5.4081 H         1 N4M401      0.0000 
     63 H          14.4543  -21.7791   -6.4116 H         1 N4M401      0.0000 
     64 H          15.4090  -22.9576   -1.8233 H         1 N4M401      0.0000 
     65 H          16.4779  -21.0427   -2.8207 H         1 N4M401      0.0000 
     66 H          17.4422  -20.2675   -5.0246 H         1 N4M401      0.0000 
     67 H          16.1793  -19.2006   -4.3867 H         1 N4M401      0.0000 
     68 H          17.3218  -19.0260   -6.7395 H         1 N4M401      0.0000 
     69 H          15.0436  -20.9608   -7.1538 H         1 N4M401      0.0000 
     70 H          16.3505  -22.2818   -8.2279 H         1 N4M401      0.0000 
     71 H          18.4740  -20.6411   -9.5301 H         1 N4M401      0.0000 
     72 H          16.8462  -20.5620  -10.2260 H         1 N4M401      0.0000 
     73 H          19.0500  -21.6691  -11.4833 H         1 N4M401      0.0000 
     74 H          17.7151  -22.6104  -13.0371 H         1 N4M401      0.0000 
     75 H          19.6862  -22.9367  -13.8471 H         1 N4M401      0.0000 
     76 H          21.2040  -24.4300  -12.0161 H         1 N4M401      0.0000 
     77 H          21.6085  -21.8270  -11.1314 H         1 N4M401      0.0000 
     78 H          20.9585  -21.5406  -12.7548 H         1 N4M401      0.0000 
     79 H          25.4207  -25.2622  -15.6162 H         1 N4M401      0.0000 
     80 H          24.9875  -22.9169  -16.5575 H         1 N4M401      0.0000 
     81 H          23.3528  -23.4868  -16.9355 H         1 N4M401      0.0000 
     82 H          25.4122  -25.3667  -17.8647 H         1 N4M401      0.0000 
     83 H          25.6050  -23.7460  -18.5547 H         1 N4M401      0.0000 
     84 H          14.0539  -28.3915    0.0914 H         1 N4M401      0.0000 
     85 H          14.4532  -28.0907    1.6199 H         1 N4M401      0.0000 
     86 H          12.9193  -27.9731    1.1515 H         1 N4M401      0.0000 
     87 H          15.7408  -26.0910   -3.2304 H         1 N4M401      0.0000 
     88 H          15.7836  -26.8816   -1.8306 H         1 N4M401      0.0000 
     89 H          14.6582  -27.2397   -2.9222 H         1 N4M401      0.0000 
     90 H          15.1160  -18.0742   -7.4440 H         1 N4M401      0.0000 
     91 H          15.7001  -19.2482   -9.3602 H         1 N4M401      0.0000 
     92 H          18.8161  -21.6101   -7.8663 H         1 N4M401      0.0000 
     93 H          18.0598  -25.2459  -12.8410 H         1 N4M401      0.0000 
     94 H          19.6562  -24.9003  -14.5691 H         1 N4M401      0.0000 
@<TRIPOS>BOND
     1    2    1 1    
     2   13    1 1    
     3    3    2 2    
     4    8    2 1    
     5    4    3 1    
     6   10    3 1    
     7    5    4 1    
     8   54    4 1    
     9    6    5 1    
    10    7    5 2    
    11   55    6 1    
    12   56    6 1    
    13    8    7 1    
    14    9    8 2    
    15   11   10 1    
    16   57   10 1    
    17   12   11 1    
    18   13   11 1    
    19   58   11 1    
    20   84   12 1    
    21   85   12 1    
    22   86   12 1    
    23   14   13 1    
    24   59   13 1    
    25   15   14 1    
    26   16   14 1    
    27   60   14 1    
    28   87   15 1    
    29   88   15 1    
    30   89   15 1    
    31   17   16 1    
    32   61   16 1    
    33   18   17 ar   
    34   20   17 ar   
    35   19   18 ar   
    36   62   18 1    
    37   22   19 ar   
    38   63   19 1    
    39   21   20 ar   
    40   64   20 1    
    41   22   21 ar   
    42   65   21 1    
    43   23   22 1    
    44   24   23 1    
    45   66   23 1    
    46   67   23 1    
    47   25   24 1    
    48   26   24 1    
    49   68   24 1    
    50   90   25 1    
    51   27   26 1    
    52   28   26 1    
    53   69   26 1    
    54   91   27 1    
    55   29   28 1    
    56   30   28 1    
    57   70   28 1    
    58   92   29 1    
    59   31   30 1    
    60   71   30 1    
    61   72   30 1    
    62   32   31 1    
    63   33   32 1    
    64   37   32 1    
    65   73   32 1    
    66   34   33 1    
    67   35   33 1    
    68   74   33 1    
    69   93   34 1    
    70   36   35 1    
    71   38   35 1    
    72   75   35 1    
    73   94   36 1    
    74   38   37 1    
    75   39   38 1    
    76   76   38 1    
    77   40   39 1    
    78   77   39 1    
    79   78   39 1    
    80   41   40 1    
    81   42   41 ar   
    82   43   41 ar   
    83   44   41 1    
    84   45   44 1    
    85   46   45 1    
    86   49   45 1    
    87   79   45 1    
    88   47   46 ar   
    89   48   46 ar   
    90   50   49 1    
    91   80   49 1    
    92   81   49 1    
    93   51   50 1    
    94   82   50 1    
    95   83   50 1    
    96   52   51 ar   
    97   53   51 ar   
@<TRIPOS>SUBSTRUCTURE
     1 N4M401      1 GROUP   
@<TRIPOS>SET

