#    Name: 2W5U_1_CAVITY_N1_ALL.mol2
#    Modification time : Mon Mar 10 18:52:43 2014

@<TRIPOS>MOLECULE
2W5U_1_CAVITY_N1_ALL.mol2
   77     0     6     0     0
SMALL
NO_CHARGES


@<TRIPOS>ATOM
      1 CA          0.6029    7.5899   60.6537 C.3       5 GLY6        0.0000 
      2 OG          1.1232    6.3646   59.9624 O.2       1 SER1        0.0000 
      3 CZ          0.8044    5.5440   61.1769 C.ar      4 PHE5        0.0000 
      4 O           0.4855    4.7234   62.3914 O.2       2 ALA2        0.0000 
      5 CZ          1.6435    5.1393   59.2711 C.ar      4 PHE5        0.0000 
      6 CZ          0.6870    2.6775   62.9146 C.ar      4 PHE5        0.0000 
      7 OG          0.3682    1.8569   64.1291 O.2       1 SER1        0.0000 
      8 OG          0.8885    0.6316   63.4378 O.2       1 SER1        0.0000 
      9 NZ          2.1306   -3.8649   62.5784 N.2       3 LYS4        0.0000 
     10 O           2.1746    5.8183   61.7220 O.2       2 ALA2        0.0000 
     11 O           1.8558    4.9978   62.9365 O.2       2 ALA2        0.0000 
     12 CZ          2.6949    4.5930   61.0307 C.ar      4 PHE5        0.0000 
     13 CZ          2.3761    3.7724   62.2452 C.ar      4 PHE5        0.0000 
     14 N           2.0573    2.9519   63.4596 N.2       2 ALA2        0.0000 
     15 O           1.7385    2.1313   64.6741 O.2       2 ALA2        0.0000 
     16 CA          1.4197    1.3107   65.8886 C.3       5 GLY6        0.0000 
     17 CA          1.1009    0.4901   67.1031 C.3       5 GLY6        0.0000 
     18 CZ          2.5776    1.7266   62.7683 C.ar      4 PHE5        0.0000 
     19 N           2.2588    0.9060   63.9828 N.2       2 ALA2        0.0000 
     20 N           1.9400    0.0854   65.1973 N.2       2 ALA2        0.0000 
     21 N           1.6212   -0.7352   66.4118 N.2       2 ALA2        0.0000 
     22 CZ          2.7791   -0.3193   63.2915 C.ar      4 PHE5        0.0000 
     23 N           2.4603   -1.1399   64.5060 N.2       2 ALA2        0.0000 
     24 N           2.1415   -1.9605   65.7205 N.2       2 ALA2        0.0000 
     25 DU          1.8227   -2.7811   66.9350 H         6 CUB7        0.0000 
     26 CZ          3.2994   -1.5446   62.6002 C.ar      4 PHE5        0.0000 
     27 DU          2.9806   -2.3652   63.8147 H         6 CUB7        0.0000 
     28 DU          2.6618   -3.1858   65.0292 H         6 CUB7        0.0000 
     29 DU          2.3430   -4.0064   66.2437 H         6 CUB7        0.0000 
     30 NZ          3.5009   -3.5905   63.1234 N.2       3 LYS4        0.0000 
     31 CA          3.7464    4.0468   62.7902 C.3       5 GLY6        0.0000 
     32 N           3.4276    3.2262   64.0047 N.2       2 ALA2        0.0000 
     33 NZ          2.1523   -0.0561   68.8627 N.2       3 LYS4        0.0000 
     34 CZ          4.2667    2.8215   62.0989 C.ar      4 PHE5        0.0000 
     35 N           3.9479    2.0009   63.3134 N.2       2 ALA2        0.0000 
     36 N           2.6726   -1.2814   68.1714 N.2       2 ALA2        0.0000 
     37 NZ          2.3538   -2.1020   69.3859 N.2       3 LYS4        0.0000 
     38 CZ          4.4682    0.7756   62.6221 C.ar      4 PHE5        0.0000 
     39 N           4.1494   -0.0450   63.8366 N.2       2 ALA2        0.0000 
     40 N           3.8305   -0.8656   65.0511 N.2       2 ALA2        0.0000 
     41 N           3.5117   -1.6862   66.2656 N.2       2 ALA2        0.0000 
     42 N           3.1929   -2.5067   67.4801 N.2       2 ALA2        0.0000 
     43 CA          2.8741   -3.3273   68.6946 C.3       5 GLY6        0.0000 
     44 O           4.6697   -1.2703   63.1453 O.2       2 ALA2        0.0000 
     45 N           4.3509   -2.0909   64.3598 N.2       2 ALA2        0.0000 
     46 DU          4.0320   -2.9115   65.5743 H         6 CUB7        0.0000 
     47 DU          3.7132   -3.7321   66.7888 H         6 CUB7        0.0000 
     48 CA          3.3944   -4.5526   68.0033 C.3       5 GLY6        0.0000 
     49 NZ          4.5523   -4.1368   64.8830 N.2       3 LYS4        0.0000 
     50 N           4.2335   -4.9574   66.0975 N.2       2 ALA2        0.0000 
     51 CA          3.9147   -5.7779   67.3120 C.3       5 GLY6        0.0000 
     52 N           4.0429   -1.0071   68.7165 N.2       2 ALA2        0.0000 
     53 NZ          3.7241   -1.8277   69.9310 N.2       3 LYS4        0.0000 
     54 N           5.5196    0.2293   64.3817 N.2       2 ALA2        0.0000 
     55 N           4.8820   -1.4118   66.8107 N.2       2 ALA2        0.0000 
     56 CA          4.5632   -2.2324   68.0252 C.3       5 GLY6        0.0000 
     57 CA          4.2444   -3.0530   69.2397 C.3       5 GLY6        0.0000 
     58 CA          6.0399   -0.9960   63.6904 C.3       5 GLY6        0.0000 
     59 N           5.7211   -1.8166   64.9049 N.2       2 ALA2        0.0000 
     60 CA          5.4023   -2.6371   66.1194 C.3       5 GLY6        0.0000 
     61 CA          5.0835   -3.4577   67.3338 C.3       5 GLY6        0.0000 
     62 O           4.7647   -4.2783   68.5483 O.2       2 ALA2        0.0000 
     63 NZ          6.2414   -3.0419   64.2136 N.2       3 LYS4        0.0000 
     64 NZ          5.9226   -3.8624   65.4280 N.2       3 LYS4        0.0000 
     65 N           5.6038   -4.6830   66.6425 N.2       2 ALA2        0.0000 
     66 N           5.2850   -5.5036   67.8570 N.2       2 ALA2        0.0000 
     67 N           6.4429   -5.0878   64.7367 N.2       2 ALA2        0.0000 
     68 N           7.0914   -1.5422   65.4499 N.2       2 ALA2        0.0000 
     69 CA          6.7726   -2.3628   66.6644 C.3       5 GLY6        0.0000 
     70 CA          6.4538   -3.1834   67.8789 C.3       5 GLY6        0.0000 
     71 CA          6.1350   -4.0040   69.0934 C.3       5 GLY6        0.0000 
     72 O           7.6117   -2.7675   64.7586 O.2       2 ALA2        0.0000 
     73 CA          7.2929   -3.5881   65.9731 C.3       5 GLY6        0.0000 
     74 CA          6.9741   -4.4087   67.1876 C.3       5 GLY6        0.0000 
     75 CA          6.6553   -5.2293   68.4021 C.3       5 GLY6        0.0000 
     76 O           8.1320   -3.9928   64.0673 O.2       2 ALA2        0.0000 
     77 N           7.8132   -4.8134   65.2818 N.2       2 ALA2        0.0000 
@<TRIPOS>BOND
@<TRIPOS>SUBSTRUCTURE
     1 SER1        2 GROUP   
     2 ALA2        4 GROUP   
     3 LYS4        9 GROUP   
     4 PHE5        3 GROUP   
     5 GLY6        1 GROUP   
     6 CUB7       25 GROUP   
@<TRIPOS>SET

