#    Name: 2w5u_FMN_1_INTS_M
#    Modification time : Tue Mar 25 03:41:38 2014

@<TRIPOS>MOLECULE
2w5u_FMN_1_INTS_M
   57     0     9     0     0
SMALL
NO_CHARGES


@<TRIPOS>ATOM
      1 N           5.9920   -0.1195   61.4970 N.am      2 SEC2        0.0000 
      2 N           5.1750    0.8970   62.3280 N.am      8 SEL2        0.0000 
      3 N           6.8090   -1.1360   60.6660 N.am      5 SEP2        0.0000 
      4 N           6.8160    0.4040   60.8860 N.am      2 SEC2        0.0000 
      5 N           6.8230    1.9440   61.1060 N.am      8 SEL2        0.0000 
      6 N           8.0310    2.6625   61.3010 N.am      2 SEC2        0.0000 
      7 N           9.2390    3.3810   61.4960 N.am      5 SEP2        0.0000 
      8 O           5.7610    4.0425   61.1880 O.2       1 ALC1        0.0000 
      9 O           5.0760    3.2100   61.7510 O.2       7 ALL1        0.0000 
     10 O           6.4460    4.8750   60.6250 O.2       4 ALP1        0.0000 
     11 CA          4.4285   -1.8035   61.7485 C.3       3 GLC5        0.0000 
     12 CA          4.0820   -1.4360   63.6860 C.3       9 GLL5        0.0000 
     13 CA          4.7750   -2.1710   59.8110 C.3       6 GLP5        0.0000 
     14 CA          2.6985   -0.6330   62.2200 C.3       3 GLC5        0.0000 
     15 CA          1.3150    0.1700   60.7540 C.3       6 GLP5        0.0000 
     16 N           6.2840    0.3170   66.3250 N.am      2 SEC2        0.0000 
     17 N           5.6890   -0.6110   65.3620 N.am      8 SEL2        0.0000 
     18 N           6.8790    1.2450   67.2880 N.am      5 SEP2        0.0000 
     19 O           4.9805    0.2785   65.9130 O.2       1 ALC1        0.0000 
     20 O           5.6890   -0.6110   65.3620 O.2       7 ALL1        0.0000 
     21 O           4.2720    1.1680   66.4640 O.2       4 ALP1        0.0000 
     22 O           5.2785   -4.4570   63.1970 O.2       1 ALC1        0.0000 
     23 O           4.8020   -3.9760   64.3900 O.2       7 ALL1        0.0000 
     24 O           5.7550   -4.9380   62.0040 O.2       4 ALP1        0.0000 
     25 CA          8.3570   -2.9000   66.1895 C.3       3 GLC5        0.0000 
     26 CA          6.2770   -3.4220   66.2120 C.3       9 GLL5        0.0000 
     27 CA         10.4370   -2.3780   66.1670 C.3       6 GLP5        0.0000 
     28 N           6.9990   -5.9410   65.8995 N.am      2 SEC2        0.0000 
     29 N           7.2650   -4.3590   65.8920 N.am      8 SEL2        0.0000 
     30 N           6.7330   -7.5230   65.9070 N.am      5 SEP2        0.0000 
     31 CA          6.8660   -5.6655   67.4665 C.3       3 GLC5        0.0000 
     32 CA          5.4110   -4.0830   67.2790 C.3       9 GLL5        0.0000 
     33 CA          8.3210   -7.2480   67.6540 C.3       6 GLP5        0.0000 
     34 N           4.5275   -6.4675   70.1075 N.am      2 SEC2        0.0000 
     35 N           5.6590   -6.4480   68.9170 N.am      8 SEL2        0.0000 
     36 N           3.3960   -6.4870   71.2980 N.am      5 SEP2        0.0000 
     37 N           6.6525   -7.3110   69.3955 N.am      2 SEC2        0.0000 
     38 N           7.6460   -8.1740   69.8740 N.am      5 SEP2        0.0000 
     39 N           4.4475   -4.4895   71.5875 N.am      2 SEC2        0.0000 
     40 N           4.6420   -4.5730   70.3060 N.am      8 SEL2        0.0000 
     41 N           4.2530   -4.4060   72.8690 N.am      5 SEP2        0.0000 
     42 N           4.0190   -5.5300   70.8020 N.am      2 SEC2        0.0000 
     43 N           6.9165   -5.5240   71.6420 N.am      2 SEC2        0.0000 
     44 N           7.0980   -5.0690   70.4420 N.am      8 SEL2        0.0000 
     45 N           6.7350   -5.9790   72.8420 N.am      5 SEP2        0.0000 
     46 N           8.3985   -5.6110   70.2705 N.am      2 SEC2        0.0000 
     47 N           9.6990   -6.1530   70.0990 N.am      5 SEP2        0.0000 
     48 CA          1.7015    2.3345   65.9695 C.3       3 GLC5        0.0000 
     49 CA          1.4700    1.3070   64.2520 C.3       9 GLL5        0.0000 
     50 CA          2.5530    3.2780   67.3700 C.3       6 GLP5        0.0000 
     51 CA          0.3210    3.3040   65.0670 C.3       3 GLC5        0.0000 
     52 CA         -0.2080    5.2170   65.5650 C.3       6 GLP5        0.0000 
     53 CA          6.8007   -1.4820   63.6935 C.3       3 GLC5        0.0000 
     54 CA          4.8460   -1.6870   64.9920 C.3       9 GLL5        0.0000 
     55 CA          8.3460   -0.6330   62.4510 C.3       6 GLP5        0.0000 
     56 CA          6.6440   -2.4512   67.9518 C.3       3 GLC5        0.0000 
     57 CA          7.4440   -1.1500   69.1580 C.3       6 GLP5        0.0000 
@<TRIPOS>BOND
@<TRIPOS>SUBSTRUCTURE
     1 ALC1        8 GROUP        1 X    ALC  0     ROOT ALC X 1
     2 SEC2        1 GROUP        1 X    SEC  0     **** SEC X 2
     3 GLC5       11 GROUP        1 X    GLC  0     **** GLC X 6
     4 ALP1       10 GROUP        1 Y    ALP  0     ROOT ALP Y 8
     5 SEP2        3 GROUP        1 Y    SEP  0     **** SEP Y 9
     6 GLP5       13 GROUP        1 Y    GLP  0     **** GLP Y 13
     7 ALL1        9 GROUP        1 Z    ALL  0     ROOT ALL Z 15
     8 SEL2        2 GROUP        1 Z    SEL  0     **** SEL Z 16
     9 GLL5       12 GROUP        1 Z    GLL  0     **** GLL Z 20
@<TRIPOS>SET

