#    Name: 2w5u_FMN_1_ligand
#    Modification time : Tue Mar 25 03:41:38 2014

@<TRIPOS>MOLECULE
2w5u_FMN_1_ligand
   50    52     1     0     0
SMALL
NO_CHARGES


@<TRIPOS>ATOM
      1 N1          5.1750    0.8970   62.3280 N.2       1 FMN165      0.0000 
      2 C2          5.7440    2.0060   61.7020 C.2       1 FMN165      0.0000 
      3 O2          6.8230    1.9440   61.1060 O.2       1 FMN165      0.0000 
      4 N3          5.0760    3.2100   61.7510 N.am      1 FMN165      0.0000 
      5 C4          3.8640    3.3170   62.4000 C.2       1 FMN165      0.0000 
      6 O4          3.2410    4.3670   62.3810 O.2       1 FMN165      0.0000 
      7 C4A         3.2790    2.2230   63.0200 C.2       1 FMN165      0.0000 
      8 N5          2.0600    2.3840   63.6500 N.2       1 FMN165      0.0000 
      9 C5A         1.4700    1.3070   64.2520 C.ar      1 FMN165      0.0000 
     10 C6          0.2300    1.4750   64.8860 C.ar      1 FMN165      0.0000 
     11 C7         -0.4090    0.3970   65.5260 C.ar      1 FMN165      0.0000 
     12 C7M        -1.8170    0.5780   66.0380 C.3       1 FMN165      0.0000 
     13 C8          0.2130   -0.8650   65.5310 C.ar      1 FMN165      0.0000 
     14 C8M        -0.5550   -2.1190   65.9300 C.3       1 FMN165      0.0000 
     15 C9          1.4540   -1.0090   64.8950 C.ar      1 FMN165      0.0000 
     16 C9A         2.0960    0.0470   64.2390 C.ar      1 FMN165      0.0000 
     17 N10         3.3490   -0.1170   63.6200 N.pl3     1 FMN165      0.0000 
     18 C10         3.9440    0.9820   62.9860 C.2       1 FMN165      0.0000 
     19 C1'         4.0820   -1.4360   63.6860 C.3       1 FMN165      0.0000 
     20 C2'         4.8460   -1.6870   64.9920 C.3       1 FMN165      0.0000 
     21 O2'         5.6890   -0.6110   65.3620 O.3       1 FMN165      0.0000 
     22 C3'         5.6650   -2.9750   64.8800 C.3       1 FMN165      0.0000 
     23 O3'         4.8020   -3.9760   64.3900 O.3       1 FMN165      0.0000 
     24 C4'         6.2770   -3.4220   66.2120 C.3       1 FMN165      0.0000 
     25 O4'         7.2650   -4.3590   65.8920 O.3       1 FMN165      0.0000 
     26 C5'         5.4110   -4.0830   67.2790 C.3       1 FMN165      0.0000 
     27 O5'         6.2080   -4.1040   68.4240 O.3       1 FMN165      0.0000 
     28 P           5.8660   -5.1140   69.5610 P.3       1 FMN165      0.0000 
     29 O1P         5.6590   -6.4480   68.9170 O.co2     1 FMN165      0.0000 
     30 O2P         4.6420   -4.5730   70.3060 O.co2     1 FMN165      0.0000 
     31 O3P         7.0980   -5.0690   70.4420 O.co2     1 FMN165      0.0000 
     32 H           5.4887    4.0453   61.2950 H         1 FMN165      0.0000 
     33 H          -0.2215    2.4015   64.8841 H         1 FMN165      0.0000 
     34 H           1.9181   -1.9448   64.9122 H         1 FMN165      0.0000 
     35 H           4.7995   -1.4986   62.8440 H         1 FMN165      0.0000 
     36 H           3.3602   -2.2637   63.5389 H         1 FMN165      0.0000 
     37 H           4.0896   -1.8717   65.7750 H         1 FMN165      0.0000 
     38 H           6.4732   -2.7919   64.1776 H         1 FMN165      0.0000 
     39 H           6.7710   -2.5480   66.6677 H         1 FMN165      0.0000 
     40 H           5.1509   -5.0715   66.9260 H         1 FMN165      0.0000 
     41 H           4.5181   -3.4843   67.3956 H         1 FMN165      0.0000 
     42 H          -2.1635   -0.2528   66.4735 H         1 FMN165      0.0000 
     43 H          -1.8742    1.3103   66.7166 H         1 FMN165      0.0000 
     44 H          -2.4529    0.8102   65.3020 H         1 FMN165      0.0000 
     45 H           0.0188   -2.9366   65.8829 H         1 FMN165      0.0000 
     46 H          -0.9037   -2.0591   66.8653 H         1 FMN165      0.0000 
     47 H          -1.3417   -2.2782   65.3335 H         1 FMN165      0.0000 
     48 H           5.1103    0.2025   65.3050 H         1 FMN165      0.0000 
     49 H           5.1915   -4.2449   63.5091 H         1 FMN165      0.0000 
     50 H           7.1737   -4.5051   64.9069 H         1 FMN165      0.0000 
@<TRIPOS>BOND
     1    2    1 1    
     2   18    1 2    
     3    3    2 2    
     4    4    2 am   
     5    5    4 am   
     6   32    4 1    
     7    6    5 2    
     8    7    5 1    
     9    8    7 2    
    10   18    7 1    
    11    9    8 1    
    12   10    9 ar   
    13   16    9 ar   
    14   11   10 ar   
    15   33   10 1    
    16   12   11 1    
    17   13   11 ar   
    18   42   12 1    
    19   43   12 1    
    20   44   12 1    
    21   14   13 1    
    22   15   13 ar   
    23   45   14 1    
    24   46   14 1    
    25   47   14 1    
    26   16   15 ar   
    27   34   15 1    
    28   17   16 1    
    29   18   17 1    
    30   19   17 1    
    31   20   19 1    
    32   35   19 1    
    33   36   19 1    
    34   21   20 1    
    35   22   20 1    
    36   37   20 1    
    37   48   21 1    
    38   23   22 1    
    39   24   22 1    
    40   38   22 1    
    41   49   23 1    
    42   25   24 1    
    43   26   24 1    
    44   39   24 1    
    45   50   25 1    
    46   27   26 1    
    47   40   26 1    
    48   41   26 1    
    49   28   27 1    
    50   29   28 ar   
    51   30   28 ar   
    52   31   28 ar   
@<TRIPOS>SUBSTRUCTURE
     1 FMN165      1 GROUP   
@<TRIPOS>SET

