#    Name: 3apw_DP0_2_INTS_M
#    Modification time : Mon Mar 24 18:00:06 2014

@<TRIPOS>MOLECULE
3apw_DP0_2_INTS_M
   34     0     6     0     0
SMALL
NO_CHARGES


@<TRIPOS>ATOM
      1 N          12.4520    2.8285   44.6515 N.am      1 SEC2        0.0000 
      2 N          13.2740    1.8390   44.6500 N.am      5 SEL2        0.0000 
      3 N          11.6300    3.8180   44.6530 N.am      3 SEP2        0.0000 
      4 CA         11.9345    7.8685   42.4920 C.3       2 GLC5        0.0000 
      5 CA         12.4130    6.2730   41.0150 C.3       6 GLL5        0.0000 
      6 CA         11.4560    9.4640   43.9690 C.3       4 GLP5        0.0000 
      7 CA         13.5490    7.6325   40.4670 C.3       2 GLC5        0.0000 
      8 CA         14.6850    8.9920   39.9190 C.3       4 GLP5        0.0000 
      9 CA         18.2495    3.4085   41.8550 C.3       2 GLC5        0.0000 
     10 CA         16.4270    4.3610   41.2410 C.3       6 GLL5        0.0000 
     11 CA         20.0720    2.4560   42.4690 C.3       4 GLP5        0.0000 
     12 CA         14.2315    7.5060   43.9790 C.3       2 GLC5        0.0000 
     13 CA         14.9630    5.7800   42.7540 C.3       6 GLL5        0.0000 
     14 CA         13.5000    9.2320   45.2040 C.3       4 GLP5        0.0000 
     15 CA         12.1760   -4.4505   42.1615 C.3       2 GLC5        0.0000 
     16 CA         13.4430   -2.9480   41.9230 C.3       6 GLL5        0.0000 
     17 CA         10.9090   -5.9530   42.4000 C.3       4 GLP5        0.0000 
     18 CA          9.0400    0.4650   39.5765 C.3       2 GLC5        0.0000 
     19 CA          9.8410    1.4670   41.0400 C.3       6 GLL5        0.0000 
     20 CA          8.2390   -0.5370   38.1130 C.3       4 GLP5        0.0000 
     21 CA          7.6105    0.5830   40.8085 C.3       2 GLC5        0.0000 
     22 CA          8.9860    1.1420   42.0850 C.3       6 GLL5        0.0000 
     23 CA          6.2350    0.0240   39.5320 C.3       4 GLP5        0.0000 
     24 CA         14.8618    7.2278   40.9892 C.3       2 GLC5        0.0000 
     25 CA         15.1140    5.1470   41.3650 C.3       6 GLL5        0.0000 
     26 CA         16.6744    6.4340   42.0078 C.3       2 GLC5        0.0000 
     27 CA         17.9820    7.6010   41.9870 C.3       4 GLP5        0.0000 
     28 CA         14.1980   -3.1690   39.0643 C.3       2 GLC5        0.0000 
     29 CA         14.4710   -3.0530   40.9870 C.3       6 GLL5        0.0000 
     30 CA         13.6130   -3.8620   37.3710 C.3       4 GLP5        0.0000 
     31 CA         16.4640   -2.8185   39.7078 C.3       2 GLC5        0.0000 
     32 CA         18.1450   -3.1610   38.6580 C.3       4 GLP5        0.0000 
     33 CA         14.7616   -3.0671   43.2364 C.3       2 GLC5        0.0000 
     34 CA         15.6660   -3.4480   44.8990 C.3       4 GLP5        0.0000 
@<TRIPOS>BOND
@<TRIPOS>SUBSTRUCTURE
     1 SEC2        1 GROUP        1 X    SEC  0     ROOT SEC X 2
     2 GLC5        4 GROUP        1 X    GLC  0     **** GLC X 6
     3 SEP2        3 GROUP        1 Y    SEP  0     ROOT SEP Y 9
     4 GLP5        6 GROUP        1 Y    GLP  0     **** GLP Y 13
     5 SEL2        2 GROUP        1 Z    SEL  0     ROOT SEL Z 16
     6 GLL5        5 GROUP        1 Z    GLL  0     **** GLL Z 20
@<TRIPOS>SET

