#    Name: 3apw_DP0_2_ligand
#    Modification time : Mon Mar 24 18:00:07 2014

@<TRIPOS>MOLECULE
3apw_DP0_2_ligand
   55    56     1     0     0
SMALL
NO_CHARGES


@<TRIPOS>ATOM
      1 C1         13.2510    0.8280   42.4560 C.3       1 DP0190      0.0000 
      2 O1         13.2740    1.8390   44.6500 O.2       1 DP0190      0.0000 
      3 C2         13.8650    1.8890   41.5470 C.3       1 DP0190      0.0000 
      4 N2         13.9860    4.2430   41.0330 N.4       1 DP0190      0.0000 
      5 C3         13.7230    3.2950   42.1190 C.3       1 DP0190      0.0000 
      6 N3         11.1710    1.3510   41.1960 N.ar      1 DP0190      0.0000 
      7 C4         12.6870    4.8270   40.5890 C.3       1 DP0190      0.0000 
      8 N4         14.9500    0.4620   44.1710 N.am      1 DP0190      0.0000 
      9 C5         15.1140    5.1470   41.3650 C.3       1 DP0190      0.0000 
     10 C6         13.6660   -0.5290   41.9430 C.ar      1 DP0190      0.0000 
     11 C7         11.7360    0.9350   42.3610 C.ar      1 DP0190      0.0000 
     12 C8         13.8130    1.0780   43.8570 C.2       1 DP0190      0.0000 
     13 C9         12.4130    6.2730   41.0150 C.3       1 DP0190      0.0000 
     14 C10        12.5710    4.6040   39.0790 C.3       1 DP0190      0.0000 
     15 C11        16.4270    4.3610   41.2410 C.3       1 DP0190      0.0000 
     16 C12        14.9630    5.7800   42.7540 C.3       1 DP0190      0.0000 
     17 C13        14.6950   -0.6470   41.0060 C.ar      1 DP0190      0.0000 
     18 C14        13.0440   -1.6910   42.3980 C.ar      1 DP0190      0.0000 
     19 C15        10.8980    0.6020   43.4330 C.ar      1 DP0190      0.0000 
     20 C16        15.0950   -1.8990   40.5280 C.ar      1 DP0190      0.0000 
     21 C17        13.4430   -2.9480   41.9230 C.ar      1 DP0190      0.0000 
     22 C18         9.5220    0.7110   43.2900 C.ar      1 DP0190      0.0000 
     23 C19        14.4710   -3.0530   40.9870 C.ar      1 DP0190      0.0000 
     24 C20         9.8410    1.4670   41.0400 C.ar      1 DP0190      0.0000 
     25 C21         8.9860    1.1420   42.0850 C.ar      1 DP0190      0.0000 
     26 H          13.3757    1.8483   40.5673 H         1 DP0190      0.0000 
     27 H          14.9280    1.6654   41.4023 H         1 DP0190      0.0000 
     28 H          14.3416    3.5843   40.1599 H         1 DP0190      0.0000 
     29 H          14.4389    3.4158   42.9225 H         1 DP0190      0.0000 
     30 H          12.7173    3.4126   42.5028 H         1 DP0190      0.0000 
     31 H          11.8740    4.1889   41.0401 H         1 DP0190      0.0000 
     32 H          15.3260   -0.1495   43.4748 H         1 DP0190      0.0000 
     33 H          15.3260    0.6661   45.0749 H         1 DP0190      0.0000 
     34 H          15.1504    5.9532   40.6259 H         1 DP0190      0.0000 
     35 H          15.1687    0.2036   40.6600 H         1 DP0190      0.0000 
     36 H          12.2833   -1.6286   43.0902 H         1 DP0190      0.0000 
     37 H          11.3052    0.2798   44.3168 H         1 DP0190      0.0000 
     38 H          15.8524   -1.9618   39.8358 H         1 DP0190      0.0000 
     39 H          12.9732   -3.7947   42.2685 H         1 DP0190      0.0000 
     40 H           8.9018    0.4731   44.0744 H         1 DP0190      0.0000 
     41 H          14.7618   -3.9716   40.6426 H         1 DP0190      0.0000 
     42 H           9.4329    1.7979   40.1456 H         1 DP0190      0.0000 
     43 H           7.9721    1.2197   41.9670 H         1 DP0190      0.0000 
     44 H          12.4105    6.3729   42.0100 H         1 DP0190      0.0000 
     45 H          13.1038    6.9023   40.6590 H         1 DP0190      0.0000 
     46 H          11.5255    6.5953   40.6858 H         1 DP0190      0.0000 
     47 H          13.3169    5.0453   38.5800 H         1 DP0190      0.0000 
     48 H          12.5958    3.6323   38.8441 H         1 DP0190      0.0000 
     49 H          11.7159    4.9721   38.7138 H         1 DP0190      0.0000 
     50 H          17.2218    4.9300   41.4519 H         1 DP0190      0.0000 
     51 H          16.4523    3.5795   41.8644 H         1 DP0190      0.0000 
     52 H          16.5597    4.0031   40.3167 H         1 DP0190      0.0000 
     53 H          14.9264    5.0884   43.4753 H         1 DP0190      0.0000 
     54 H          15.7266    6.3885   42.9698 H         1 DP0190      0.0000 
     55 H          14.1263    6.3229   42.8258 H         1 DP0190      0.0000 
@<TRIPOS>BOND
     1    3    1 1    
     2   10    1 1    
     3   11    1 1    
     4   12    1 1    
     5   12    2 2    
     6    5    3 1    
     7   26    3 1    
     8   27    3 1    
     9    5    4 1    
    10    7    4 1    
    11    9    4 1    
    12   28    4 1    
    13   29    5 1    
    14   30    5 1    
    15   11    6 ar   
    16   24    6 ar   
    17   13    7 1    
    18   14    7 1    
    19   31    7 1    
    20   12    8 am   
    21   32    8 1    
    22   33    8 1    
    23   15    9 1    
    24   16    9 1    
    25   34    9 1    
    26   17   10 ar   
    27   18   10 ar   
    28   19   11 ar   
    29   44   13 1    
    30   45   13 1    
    31   46   13 1    
    32   47   14 1    
    33   48   14 1    
    34   49   14 1    
    35   50   15 1    
    36   51   15 1    
    37   52   15 1    
    38   53   16 1    
    39   54   16 1    
    40   55   16 1    
    41   20   17 ar   
    42   35   17 1    
    43   21   18 ar   
    44   36   18 1    
    45   22   19 ar   
    46   37   19 1    
    47   23   20 ar   
    48   38   20 1    
    49   23   21 ar   
    50   39   21 1    
    51   25   22 ar   
    52   40   22 1    
    53   41   23 1    
    54   25   24 ar   
    55   42   24 1    
    56   43   25 1    
@<TRIPOS>SUBSTRUCTURE
     1 DP0190      1 GROUP   
@<TRIPOS>SET

