#    Name: 2NNV_1_CAVITY_N1_6.mol2
#    Modification time : Tue Mar 11 00:15:55 2014

@<TRIPOS>MOLECULE
2NNV_1_CAVITY_N1_6.mol2
   82     0     6     0     0
SMALL
NO_CHARGES


@<TRIPOS>ATOM
      1 CA         -1.9011    6.6025   14.5979 C.3       5 GLY6        0.0000 
      2 CZ         -2.9908    7.5056   14.1010 C.ar      4 PHE5        0.0000 
      3 CA         -0.5452    5.2473   13.6897 C.3       5 GLY6        0.0000 
      4 CA         -1.6350    6.1503   13.1927 C.3       5 GLY6        0.0000 
      5 CZ         -2.7247    7.0534   12.6957 C.ar      4 PHE5        0.0000 
      6 N          -0.2791    4.7951   12.2844 N.2       2 ALA2        0.0000 
      7 DU         -1.3689    5.6981   11.7875 H         6 CUB7        0.0000 
      8 DU         -0.0130    4.3429   10.8792 H         6 CUB7        0.0000 
      9 CA          0.2531    3.8907    9.4739 C.3       5 GLY6        0.0000 
     10 CZ         -4.2527    6.8487   15.6745 C.ar      4 PHE5        0.0000 
     11 CA         -1.8071    4.5904   15.2632 C.3       5 GLY6        0.0000 
     12 CA         -2.8969    5.4935   14.7663 C.3       5 GLY6        0.0000 
     13 CZ         -3.9866    6.3965   14.2693 C.ar      4 PHE5        0.0000 
     14 OG         -1.5410    4.1382   13.8580 O.2       1 SER1        0.0000 
     15 DU         -2.6308    5.0413   13.3610 H         6 CUB7        0.0000 
     16 DU         -3.7205    5.9443   12.8641 H         6 CUB7        0.0000 
     17 CZ         -4.8103    6.8474   12.3671 C.ar      4 PHE5        0.0000 
     18 OG         -1.2749    3.6860   12.4527 O.2       1 SER1        0.0000 
     19 DU         -2.3647    4.5891   11.9558 H         6 CUB7        0.0000 
     20 DU         -3.4544    5.4921   11.4588 H         6 CUB7        0.0000 
     21 CZ          0.0809    2.3308   11.5445 C.ar      4 PHE5        0.0000 
     22 OG         -1.0088    3.2338   11.0475 O.2       1 SER1        0.0000 
     23 DU         -3.1883    5.0399   10.0536 H         6 CUB7        0.0000 
     24 CA         -0.7427    2.7816    9.6423 C.3       5 GLY6        0.0000 
     25 DU         -1.8325    3.6846    9.1453 H         6 CUB7        0.0000 
     26 CA         -5.2486    5.7397   15.8429 C.3       5 GLY6        0.0000 
     27 OG         -2.8030    3.4814   15.4315 O.2       1 SER1        0.0000 
     28 CA         -3.8927    4.3844   14.9346 C.3       5 GLY6        0.0000 
     29 CZ         -4.9824    5.2875   14.4376 C.ar      4 PHE5        0.0000 
     30 CZ         -6.0722    6.1905   13.9407 C.ar      4 PHE5        0.0000 
     31 OG         -2.5369    3.0292   14.0263 O.2       1 SER1        0.0000 
     32 DU         -3.6266    3.9322   13.5293 H         6 CUB7        0.0000 
     33 O          -4.7163    4.8353   13.0324 O.2       2 ALA2        0.0000 
     34 O          -5.8061    5.7383   12.5354 O.2       2 ALA2        0.0000 
     35 OG         -2.2708    2.5770   12.6211 O.2       1 SER1        0.0000 
     36 DU         -3.3605    3.4800   12.1241 H         6 CUB7        0.0000 
     37 O          -4.4502    4.3830   11.6271 O.2       2 ALA2        0.0000 
     38 O          -5.5400    5.2861   11.1302 O.2       2 ALA2        0.0000 
     39 OG         -0.9149    1.2217   11.7128 O.2       1 SER1        0.0000 
     40 OG         -2.0047    2.1247   11.2158 O.2       1 SER1        0.0000 
     41 DU         -3.0944    3.0278   10.7189 H         6 CUB7        0.0000 
     42 N          -4.1841    3.9308   10.2219 N.2       2 ALA2        0.0000 
     43 CA         -1.7385    1.6725    9.8106 C.3       5 GLY6        0.0000 
     44 CA         -6.2444    4.6306   16.0112 C.3       5 GLY6        0.0000 
     45 OG         -3.7988    2.3723   15.5999 O.2       1 SER1        0.0000 
     46 CA         -4.8885    3.2754   15.1029 C.3       5 GLY6        0.0000 
     47 O          -5.9783    4.1784   14.6060 O.2       2 ALA2        0.0000 
     48 O          -7.0680    5.0814   14.1090 O.2       2 ALA2        0.0000 
     49 OG         -3.5327    1.9201   14.1946 O.2       1 SER1        0.0000 
     50 DU         -4.6224    2.8231   13.6977 H         6 CUB7        0.0000 
     51 O          -5.7122    3.7262   13.2007 O.2       2 ALA2        0.0000 
     52 OG         -3.2666    1.4679   12.7894 O.2       1 SER1        0.0000 
     53 O          -4.3563    2.3709   12.2924 O.2       2 ALA2        0.0000 
     54 O          -5.4461    3.2740   11.7955 O.2       2 ALA2        0.0000 
     55 CA         -1.9107    0.1126   11.8811 C.3       5 GLY6        0.0000 
     56 OG         -3.0005    1.0157   11.3842 O.2       1 SER1        0.0000 
     57 N          -4.0902    1.9187   10.8872 N.2       2 ALA2        0.0000 
     58 N          -5.1800    2.8218   10.3902 N.2       2 ALA2        0.0000 
     59 CA         -1.6446   -0.3396   10.4759 C.3       5 GLY6        0.0000 
     60 N          -2.7344    0.5635    9.9789 N.2       2 ALA2        0.0000 
     61 CA         -6.4165    3.0707   18.0817 C.3       5 GLY6        0.0000 
     62 CA         -5.0607    1.7154   17.1734 C.3       5 GLY6        0.0000 
     63 CA         -6.1504    2.6185   16.6765 C.3       5 GLY6        0.0000 
     64 CA         -7.2402    3.5215   16.1795 C.3       5 GLY6        0.0000 
     65 OD1        -4.7946    1.2632   15.7682 O.3       3 ASP3        0.0000 
     66 N          -5.8843    2.1663   15.2712 N.2       2 ALA2        0.0000 
     67 CA         -6.9741    3.0693   14.7743 C.3       5 GLY6        0.0000 
     68 N          -5.6182    1.7141   13.8660 N.2       2 ALA2        0.0000 
     69 O          -6.7080    2.6171   13.3690 O.2       2 ALA2        0.0000 
     70 CA         -4.2624    0.3588   12.9577 C.3       5 GLY6        0.0000 
     71 N          -5.3521    1.2619   12.4608 N.2       2 ALA2        0.0000 
     72 CA         -2.9065   -0.9964   12.0494 C.3       5 GLY6        0.0000 
     73 DU         -3.9963   -0.0934   11.5525 H         6 CUB7        0.0000 
     74 O          -5.0860    0.8097   11.0555 O.2       2 ALA2        0.0000 
     75 CA         -2.6404   -1.4486   10.6442 C.3       5 GLY6        0.0000 
     76 CA         -3.7302   -0.5456   10.1472 C.3       5 GLY6        0.0000 
     77 O          -4.8199    0.3575    9.6503 O.2       2 ALA2        0.0000 
     78 CA         -7.4124    1.9616   18.2500 C.3       5 GLY6        0.0000 
     79 OD1        -6.0565    0.6064   17.3418 O.3       3 ASP3        0.0000 
     80 OD1        -7.1463    1.5094   16.8448 O.3       3 ASP3        0.0000 
     81 CA         -3.9024   -2.1055   12.2178 C.3       5 GLY6        0.0000 
     82 CA         -4.9921   -1.2024   11.7208 C.3       5 GLY6        0.0000 
@<TRIPOS>BOND
@<TRIPOS>SUBSTRUCTURE
     1 SER1       14 GROUP   
     2 ALA2        6 GROUP   
     3 ASP3       65 GROUP   
     4 PHE5        2 GROUP   
     5 GLY6        1 GROUP   
     6 CUB7        7 GROUP   
@<TRIPOS>SET

