#    Name: 2nnv_M29_1_INTS_M
#    Modification time : Tue Mar 25 21:24:41 2014

@<TRIPOS>MOLECULE
2nnv_M29_1_INTS_M
   41     0    12     0     0
SMALL
NO_CHARGES


@<TRIPOS>ATOM
      1 CA         -8.0220    3.1265   15.0635 C.3       4 GLC5        0.0000 
      2 CA         -6.0940    3.1360   15.3350 C.3      12 GLL5        0.0000 
      3 CA         -9.9500    3.1170   14.7920 C.3       8 GLP5        0.0000 
      4 CA         -7.6155    4.8205   15.0650 C.3       4 GLC5        0.0000 
      5 CA         -5.5850    4.1650   14.5640 C.3      12 GLL5        0.0000 
      6 CA         -9.6460    5.4760   15.5660 C.3       8 GLP5        0.0000 
      7 CA         -2.6435    0.4725   14.8750 C.3       4 GLC5        0.0000 
      8 CA         -3.9400    2.0620   15.3330 C.3      12 GLL5        0.0000 
      9 CA         -1.3470   -1.1170   14.4170 C.3       8 GLP5        0.0000 
     10 N          -4.0670    0.5385   18.5610 N.am      2 SEC2        0.0000 
     11 N          -5.3730    0.9660   18.0400 N.am     10 SEL2        0.0000 
     12 N          -2.7610    0.1110   19.0820 N.am      6 SEP2        0.0000 
     13 O          -4.5770   -1.4605   16.8760 O.2       1 ALC1        0.0000 
     14 O          -5.4500   -0.6540   16.1030 O.2       9 ALL1        0.0000 
     15 O          -3.7040   -2.2670   17.6490 O.2       5 ALP1        0.0000 
     16 Zn         -6.1110   -1.2225   15.6970 Zn        3 ZIC7        0.0000 
     17 Zn         -5.4500   -0.6540   16.1030 Zn       11 ZIL7        0.0000 
     18 Zn         -6.7720   -1.7910   15.2910 Zn        7 ZIP7        0.0000 
     19 CA         -2.3715    5.8385   16.0005 C.3       4 GLC5        0.0000 
     20 CA         -2.7570    6.1460   14.1930 C.3      12 GLL5        0.0000 
     21 CA         -1.9860    5.5310   17.8080 C.3       8 GLP5        0.0000 
     22 CA         -0.6590    5.9095   14.8375 C.3       4 GLC5        0.0000 
     23 CA          1.4390    5.6730   15.4820 C.3       8 GLP5        0.0000 
     24 CA         -3.0410    9.4600   14.1375 C.3       4 GLC5        0.0000 
     25 CA         -0.8950    9.3320   13.8310 C.3      12 GLL5        0.0000 
     26 CA         -5.1870    9.5880   14.4440 C.3       8 GLP5        0.0000 
     27 CA         -1.2585   10.8875   16.2795 C.3       4 GLC5        0.0000 
     28 CA         -0.1230    9.9800   14.9710 C.3      12 GLL5        0.0000 
     29 CA         -2.3940   11.7950   17.5880 C.3       8 GLP5        0.0000 
     30 CA          0.0760    9.5880   16.9595 C.3       4 GLC5        0.0000 
     31 CA          0.2750    9.1960   18.9480 C.3       8 GLP5        0.0000 
     32 CA         -5.0057    3.6543   16.8577 C.3       4 GLC5        0.0000 
     33 CA         -4.3290    4.7070   18.1800 C.3       8 GLP5        0.0000 
     34 CA         -4.6242    4.4372   16.2792 C.3       4 GLC5        0.0000 
     35 CA         -4.0055    3.6525   16.5675 C.3       4 GLC5        0.0000 
     36 CA         -3.4240    3.1340   14.5770 C.3      12 GLL5        0.0000 
     37 CA         -4.6223    7.1643   14.3637 C.3       4 GLC5        0.0000 
     38 CA         -3.7100    5.3030   13.3840 C.3      12 GLL5        0.0000 
     39 CA         -6.0110    8.6040   14.9390 C.3       8 GLP5        0.0000 
     40 CA          0.6165    8.2340   15.4050 C.3       4 GLC5        0.0000 
     41 CA          1.7420    6.8120   16.4090 C.3       8 GLP5        0.0000 
@<TRIPOS>BOND
@<TRIPOS>SUBSTRUCTURE
     1 ALC1       13 GROUP        1 X    ALC  0     ROOT ALC X 1
     2 SEC2       10 GROUP        1 X    SEC  0     **** SEC X 2
     3 ZIC7       16 GROUP        1 X    ZIC  0     **** ZIC X 5
     4 GLC5        1 GROUP        1 X    GLC  0     **** GLC X 6
     5 ALP1       15 GROUP        1 Y    ALP  0     ROOT ALP Y 8
     6 SEP2       12 GROUP        1 Y    SEP  0     **** SEP Y 9
     7 ZIP7       18 GROUP        1 Y    ZIP  0     **** ZIP Y 12
     8 GLP5        3 GROUP        1 Y    GLP  0     **** GLP Y 13
     9 ALL1       14 GROUP        1 Z    ALL  0     ROOT ALL Z 15
    10 SEL2       11 GROUP        1 Z    SEL  0     **** SEL Z 16
    11 ZIL7       17 GROUP        1 Z    ZIL  0     **** ZIL Z 19
    12 GLL5        2 GROUP        1 Z    GLL  0     **** GLL Z 20
@<TRIPOS>SET

