#    Name: 2nnv_M29_1_ligand
#    Modification time : Tue Mar 25 21:24:42 2014

@<TRIPOS>MOLECULE
2nnv_M29_1_ligand
   31    31     1     0     0
SMALL
NO_CHARGES


@<TRIPOS>ATOM
      1 C1         -5.2710    2.0670   15.7360 C.ar      1 M29301      0.0000 
      2 C2         -6.0940    3.1360   15.3350 C.ar      1 M29301      0.0000 
      3 C3         -5.5850    4.1650   14.5640 C.ar      1 M29301      0.0000 
      4 C4         -4.2540    4.1700   14.1930 C.ar      1 M29301      0.0000 
      5 C5         -3.4240    3.1340   14.5770 C.ar      1 M29301      0.0000 
      6 C6         -3.9400    2.0620   15.3330 C.ar      1 M29301      0.0000 
      7 S          -5.9400    0.7540   16.7160 S.o2      1 M29301      0.0000 
      8 O1         -7.3820    0.8790   16.5920 O.2       1 M29301      0.0000 
      9 O2         -5.3730    0.9660   18.0400 O.2       1 M29301      0.0000 
     10 N          -5.4500   -0.6540   16.1030 N.pl3     1 M29301      0.0000 
     11 C7         -3.7100    5.3030   13.3840 C.3       1 M29301      0.0000 
     12 C8         -2.7570    6.1460   14.1930 C.3       1 M29301      0.0000 
     13 C9         -2.1760    7.3640   13.5430 C.2       1 M29301      0.0000 
     14 O3         -1.3150    8.0500   14.3360 O.3       1 M29301      0.0000 
     15 O4         -2.4870    7.6810   12.4410 O.2       1 M29301      0.0000 
     16 C10        -0.8950    9.3320   13.8310 C.3       1 M29301      0.0000 
     17 C11        -0.1230    9.9800   14.9710 C.3       1 M29301      0.0000 
     18 H          -7.0835    3.1420   15.6241 H         1 M29301      0.0000 
     19 H          -6.2053    4.9360   14.2632 H         1 M29301      0.0000 
     20 H          -2.4309    3.1336   14.3181 H         1 M29301      0.0000 
     21 H          -3.3246    1.2792   15.5826 H         1 M29301      0.0000 
     22 H          -4.6142   -1.0379   16.4956 H         1 M29301      0.0000 
     23 H          -4.5347    5.9326   13.0288 H         1 M29301      0.0000 
     24 H          -3.1855    4.9104   12.5045 H         1 M29301      0.0000 
     25 H          -1.9152    5.4886   14.5471 H         1 M29301      0.0000 
     26 H          -3.2757    6.4553   15.1425 H         1 M29301      0.0000 
     27 H          -1.7350    9.9608   13.5862 H         1 M29301      0.0000 
     28 H          -0.2356    9.2326   12.9847 H         1 M29301      0.0000 
     29 H           0.6718    9.4351   15.2382 H         1 M29301      0.0000 
     30 H           0.2143   10.8879   14.7222 H         1 M29301      0.0000 
     31 H          -0.6898   10.0914   15.7873 H         1 M29301      0.0000 
@<TRIPOS>BOND
     1    2    1 ar   
     2    6    1 ar   
     3    7    1 1    
     4    3    2 ar   
     5   18    2 1    
     6    4    3 ar   
     7   19    3 1    
     8    5    4 ar   
     9   11    4 1    
    10    6    5 ar   
    11   20    5 1    
    12   21    6 1    
    13    8    7 2    
    14    9    7 2    
    15   10    7 1    
    16   22   10 1    
    17   12   11 1    
    18   23   11 1    
    19   24   11 1    
    20   13   12 1    
    21   25   12 1    
    22   26   12 1    
    23   14   13 1    
    24   15   13 2    
    25   16   14 1    
    26   17   16 1    
    27   27   16 1    
    28   28   16 1    
    29   29   17 1    
    30   30   17 1    
    31   31   17 1    
@<TRIPOS>SUBSTRUCTURE
     1 M29301      1 GROUP   
@<TRIPOS>SET

