#    Name: 2w8y_486_1_INTS_M
#    Modification time : Tue Mar 25 03:46:19 2014

@<TRIPOS>MOLECULE
2w8y_486_1_INTS_M
  102     0     6     0     0
SMALL
NO_CHARGES


@<TRIPOS>ATOM
      1 N          12.9170    7.5595    1.7370 N.am      1 SEC2        0.0000 
      2 N          13.5700    7.3990    2.9280 N.am      5 SEL2        0.0000 
      3 N          12.2640    7.7200    0.5460 N.am      3 SEP2        0.0000 
      4 CA         11.1605    8.5255    3.3940 C.3       2 GLC5        0.0000 
      5 CA         11.5590    6.8400    3.9510 C.3       6 GLL5        0.0000 
      6 CA         10.7620   10.2110    2.8370 C.3       4 GLP5        0.0000 
      7 CA         15.8790    6.5960    4.3125 C.3       2 GLC5        0.0000 
      8 CA         13.8510    6.0290    4.7120 C.3       6 GLL5        0.0000 
      9 CA         17.9070    7.1630    3.9130 C.3       4 GLP5        0.0000 
     10 CA         14.0005    7.9625    5.3875 C.3       2 GLC5        0.0000 
     11 CA         14.1500    9.8960    6.0630 C.3       4 GLP5        0.0000 
     12 CA         13.9590    7.4210    6.5415 C.3       2 GLC5        0.0000 
     13 CA         13.3270    5.4180    5.7940 C.3       6 GLL5        0.0000 
     14 CA         14.5910    9.4240    7.2890 C.3       4 GLP5        0.0000 
     15 CA         16.0350    3.8775    5.7460 C.3       2 GLC5        0.0000 
     16 CA         14.2400    4.5480    6.6190 C.3       6 GLL5        0.0000 
     17 CA         17.8300    3.2070    4.8730 C.3       4 GLP5        0.0000 
     18 CA         11.0185    8.2180    6.4395 C.3       2 GLC5        0.0000 
     19 CA         10.9900    6.4020    5.2970 C.3       6 GLL5        0.0000 
     20 CA         11.0470   10.0340    7.5820 C.3       4 GLP5        0.0000 
     21 CA          6.0700    1.2845    6.8020 C.3       2 GLC5        0.0000 
     22 CA          7.1330    2.5810    5.7760 C.3       6 GLL5        0.0000 
     23 CA          5.0070   -0.0120    7.8280 C.3       4 GLP5        0.0000 
     24 CA          5.9940   -0.4220    2.8625 C.3       2 GLC5        0.0000 
     25 CA          6.5760    0.4340    4.5630 C.3       6 GLL5        0.0000 
     26 CA          5.4120   -1.2780    1.1620 C.3       4 GLP5        0.0000 
     27 CA          8.2985    0.1290    5.4160 C.3       2 GLC5        0.0000 
     28 CA         10.0210   -0.1760    6.2690 C.3       4 GLP5        0.0000 
     29 CA          8.2365    0.9895    3.3015 C.3       2 GLC5        0.0000 
     30 CA          9.8970    1.5450    2.0400 C.3       4 GLP5        0.0000 
     31 CA          4.8730    0.1280    4.8455 C.3       2 GLC5        0.0000 
     32 CA          3.1700   -0.1780    5.1280 C.3       4 GLP5        0.0000 
     33 CA          5.9635   -1.3075    4.6915 C.3       2 GLC5        0.0000 
     34 CA          5.3510   -3.0490    4.8200 C.3       4 GLP5        0.0000 
     35 CA          6.3215    3.7255    3.9795 C.3       2 GLC5        0.0000 
     36 CA          4.9060    2.2840    4.7370 C.3       6 GLL5        0.0000 
     37 CA          7.7370    5.1670    3.2220 C.3       4 GLP5        0.0000 
     38 CA          4.7260    3.2060    3.0845 C.3       2 GLC5        0.0000 
     39 CA          4.5460    4.1280    1.4320 C.3       4 GLP5        0.0000 
     40 CA          4.0255    1.7100    5.3345 C.3       2 GLC5        0.0000 
     41 CA          3.1450    1.1360    5.9320 C.3       4 GLP5        0.0000 
     42 CA          5.1640    2.3230    7.0315 C.3       2 GLC5        0.0000 
     43 CA          6.7050    3.5560    6.6660 C.3       6 GLL5        0.0000 
     44 CA          3.6230    1.0900    7.3970 C.3       4 GLP5        0.0000 
     45 CA         10.9345    1.3680    9.4250 C.3       2 GLC5        0.0000 
     46 CA         10.0060    2.9410    9.5910 C.3       6 GLL5        0.0000 
     47 CA         11.8630   -0.2050    9.2590 C.3       4 GLP5        0.0000 
     48 CA          8.9720    1.5045   10.3335 C.3       2 GLC5        0.0000 
     49 CA          7.9380    0.0680   11.0760 C.3       4 GLP5        0.0000 
     50 CA          9.7730    8.5455   13.4765 C.3       2 GLC5        0.0000 
     51 CA         11.2490    8.1660   13.1150 C.3       6 GLL5        0.0000 
     52 CA          8.2970    8.9250   13.8380 C.3       4 GLP5        0.0000 
     53 CA         12.0910    9.6130   13.2335 C.3       2 GLC5        0.0000 
     54 CA         12.9330   11.0600   13.3520 C.3       4 GLP5        0.0000 
     55 CA         12.5985    7.0710   13.5750 C.3       2 GLC5        0.0000 
     56 CA         13.9480    5.9760   14.0350 C.3       4 GLP5        0.0000 
     57 CA         13.9630    2.0910   11.1205 C.3       2 GLC5        0.0000 
     58 CA         12.6580    3.5960   10.7300 C.3       6 GLL5        0.0000 
     59 CA         15.2680    0.5860   11.5110 C.3       4 GLP5        0.0000 
     60 CA         15.2625    3.1840    8.9665 C.3       2 GLC5        0.0000 
     61 CA         13.7880    4.5820    8.0740 C.3       6 GLL5        0.0000 
     62 CA         16.7370    1.7860    9.8590 C.3       4 GLP5        0.0000 
     63 CA          9.5057    5.8940    3.9230 C.3       2 GLC5        0.0000 
     64 CA         13.8257    3.8509    4.5090 C.3       2 GLC5        0.0000 
     65 CA         13.7370    2.5660    3.0820 C.3       4 GLP5        0.0000 
     66 CA         15.1795    5.4670    8.6707 C.3       2 GLC5        0.0000 
     67 CA         16.3450    6.3690    9.9950 C.3       4 GLP5        0.0000 
     68 CA         11.3056    4.2975    4.2357 C.3       2 GLC5        0.0000 
     69 CA         11.9040    5.5750    6.1810 C.3       6 GLL5        0.0000 
     70 CA         11.0220    2.4970    3.0690 C.3       4 GLP5        0.0000 
     71 CA          9.3225    7.3332    8.4787 C.3       2 GLC5        0.0000 
     72 CA          9.9510    5.2980    7.7360 C.3       6 GLL5        0.0000 
     73 CA          8.8020    9.3150    8.4520 C.3       4 GLP5        0.0000 
     74 CA          8.4713    4.4947    4.9078 C.3       2 GLC5        0.0000 
     75 CA          8.9960    4.3080    7.0470 C.3       6 GLL5        0.0000 
     76 CA          9.9902    2.7058    4.4480 C.3       2 GLC5        0.0000 
     77 CA          9.4150    3.3370    6.1400 C.3       6 GLL5        0.0000 
     78 CA          7.7773    3.8518    4.4335 C.3       2 GLC5        0.0000 
     79 CA          8.5020    2.4920    5.5140 C.3       6 GLL5        0.0000 
     80 CA          6.1787    5.4737    6.9543 C.3       2 GLC5        0.0000 
     81 CA          5.1900    6.9670    6.9370 C.3       4 GLP5        0.0000 
     82 CA          7.4523    4.5737    5.0968 C.3       2 GLC5        0.0000 
     83 CA          7.6300    4.4050    7.2770 C.3       6 GLL5        0.0000 
     84 CA         10.1990    2.1150   12.0008 C.3       2 GLC5        0.0000 
     85 CA         10.5030    4.4320   11.5660 C.3       6 GLL5        0.0000 
     86 CA          9.2860    0.2260   12.2370 C.3       4 GLP5        0.0000 
     87 CA          9.5633    7.6258   13.0690 C.3       2 GLC5        0.0000 
     88 CA         10.7170    5.7960   12.0840 C.3       6 GLL5        0.0000 
     89 CA         12.3887    6.1513   13.1675 C.3       2 GLC5        0.0000 
     90 CA         10.9420    6.8570   12.5160 C.3       6 GLL5        0.0000 
     91 CA         10.8498    8.8003   11.4238 C.3       2 GLC5        0.0000 
     92 CA         10.6040   10.0890   10.0320 C.3       4 GLP5        0.0000 
     93 CA         10.7638    6.5743   14.3302 C.3       2 GLC5        0.0000 
     94 CA         10.4320    5.6370   15.8450 C.3       4 GLP5        0.0000 
     95 CA         13.0688    4.7810   12.6907 C.3       2 GLC5        0.0000 
     96 CA         11.7210    3.5760   11.9630 C.3       6 GLL5        0.0000 
     97 CA         11.0103    4.3465   13.7165 C.3       2 GLC5        0.0000 
     98 CA         10.8550    4.3480   15.5390 C.3       4 GLP5        0.0000 
     99 CA         12.7400    2.2928    9.2420 C.3       2 GLC5        0.0000 
    100 CA         13.1560    0.5170    8.2580 C.3       4 GLP5        0.0000 
    101 CA         13.1613    2.4640    8.0294 C.3       2 GLC5        0.0000 
    102 CA         12.3190    4.2570    8.2550 C.3       6 GLL5        0.0000 
@<TRIPOS>BOND
@<TRIPOS>SUBSTRUCTURE
     1 SEC2        1 GROUP        1 X    SEC  0     ROOT SEC X 2
     2 GLC5        4 GROUP        1 X    GLC  0     **** GLC X 6
     3 SEP2        3 GROUP        1 Y    SEP  0     ROOT SEP Y 9
     4 GLP5        6 GROUP        1 Y    GLP  0     **** GLP Y 13
     5 SEL2        2 GROUP        1 Z    SEL  0     ROOT SEL Z 16
     6 GLL5        5 GROUP        1 Z    GLL  0     **** GLL Z 20
@<TRIPOS>SET

