#    Name: 2w8y_486_1_ligand
#    Modification time : Tue Mar 25 03:46:19 2014

@<TRIPOS>MOLECULE
2w8y_486_1_ligand
   67    71     1     0     0
SMALL
NO_CHARGES


@<TRIPOS>ATOM
      1 O30        13.5700    7.3990    2.9280 O.2       1 4861000     0.0000 
      2 C2         13.0500    6.7680    3.8260 C.2       1 4861000     0.0000 
      3 C1         11.5590    6.8400    3.9510 C.3       1 4861000     0.0000 
      4 C3         13.8510    6.0290    4.7120 C.2       1 4861000     0.0000 
      5 C4         13.3270    5.4180    5.7940 C.2       1 4861000     0.0000 
      6 C7         14.2400    4.5480    6.6190 C.3       1 4861000     0.0000 
      7 C5         11.9040    5.5750    6.1810 C.2       1 4861000     0.0000 
      8 C6         10.9900    6.4020    5.2970 C.3       1 4861000     0.0000 
      9 C10        11.4250    5.0620    7.3410 C.2       1 4861000     0.0000 
     10 C14         9.9510    5.2980    7.7360 C.3       1 4861000     0.0000 
     11 C18         8.9960    4.3080    7.0470 C.ar      1 4861000     0.0000 
     12 C22         9.4150    3.3370    6.1400 C.ar      1 4861000     0.0000 
     13 C23         8.5020    2.4920    5.5140 C.ar      1 4861000     0.0000 
     14 C24         7.1330    2.5810    5.7760 C.ar      1 4861000     0.0000 
     15 N27         6.2080    1.7330    5.1350 N.pl3     1 4861000     0.0000 
     16 C29         6.5760    0.4340    4.5630 C.3       1 4861000     0.0000 
     17 C28         4.9060    2.2840    4.7370 C.3       1 4861000     0.0000 
     18 C25         6.7050    3.5560    6.6660 C.ar      1 4861000     0.0000 
     19 C26         7.6300    4.4050    7.2770 C.ar      1 4861000     0.0000 
     20 C13         9.7350    5.4050    9.2750 C.3       1 4861000     0.0000 
     21 C12        10.4890    4.3300   10.0310 C.3       1 4861000     0.0000 
     22 C19        10.0060    2.9410    9.5910 C.3       1 4861000     0.0000 
     23 C17        10.5030    4.4320   11.5660 C.3       1 4861000     0.0000 
     24 C31        10.7170    5.7960   12.0840 C.1       1 4861000     0.0000 
     25 C30        10.9420    6.8570   12.5160 C.1       1 4861000     0.0000 
     26 C32        11.2490    8.1660   13.1150 C.3       1 4861000     0.0000 
     27 O3          9.3380    3.8990   12.1630 O.3       1 4861000     0.0000 
     28 C16        11.7210    3.5760   11.9630 C.3       1 4861000     0.0000 
     29 C15        12.6580    3.5960   10.7300 C.3       1 4861000     0.0000 
     30 C11        11.9900    4.5410    9.7220 C.3       1 4861000     0.0000 
     31 C9         12.3190    4.2570    8.2550 C.3       1 4861000     0.0000 
     32 C8         13.7880    4.5820    8.0740 C.3       1 4861000     0.0000 
     33 H          11.0914    6.2182    3.1552 H         1 4861000     0.0000 
     34 H          11.2218    7.8817    3.7516 H         1 4861000     0.0000 
     35 H          14.8726    5.9657    4.5072 H         1 4861000     0.0000 
     36 H          15.2584    4.9164    6.5536 H         1 4861000     0.0000 
     37 H          14.2008    3.5258    6.2575 H         1 4861000     0.0000 
     38 H          10.0514    5.8284    5.1140 H         1 4861000     0.0000 
     39 H          10.6725    7.3113    5.8591 H         1 4861000     0.0000 
     40 H           9.6859    6.3208    7.3213 H         1 4861000     0.0000 
     41 H          10.4246    3.2420    5.9274 H         1 4861000     0.0000 
     42 H           8.8433    1.7827    4.8403 H         1 4861000     0.0000 
     43 H           5.7029    3.6567    6.8790 H         1 4861000     0.0000 
     44 H           7.2778    5.1398    7.9313 H         1 4861000     0.0000 
     45 H           8.6649    5.3205    9.4764 H         1 4861000     0.0000 
     46 H          10.0704    6.3926    9.5991 H         1 4861000     0.0000 
     47 H          11.4106    2.5776   12.1540 H         1 4861000     0.0000 
     48 H          12.2175    4.0211   12.7906 H         1 4861000     0.0000 
     49 H          12.7205    2.6162   10.3202 H         1 4861000     0.0000 
     50 H          13.6064    3.9842   11.0156 H         1 4861000     0.0000 
     51 H          12.2306    5.5461    9.9911 H         1 4861000     0.0000 
     52 H          12.1732    3.2037    8.0833 H         1 4861000     0.0000 
     53 H          13.9915    5.5827    8.4871 H         1 4861000     0.0000 
     54 H          14.3919    3.8644    8.6517 H         1 4861000     0.0000 
     55 H           7.2686    0.5260    3.8475 H         1 4861000     0.0000 
     56 H           6.9495   -0.1840    5.2548 H         1 4861000     0.0000 
     57 H           5.7895   -0.0271    4.1521 H         1 4861000     0.0000 
     58 H           5.0051    3.0454    4.0964 H         1 4861000     0.0000 
     59 H           4.3332    1.5972    4.2896 H         1 4861000     0.0000 
     60 H           4.3920    2.6273    5.5231 H         1 4861000     0.0000 
     61 H          10.1496    2.7905    8.6129 H         1 4861000     0.0000 
     62 H          10.4881    2.2100   10.0739 H         1 4861000     0.0000 
     63 H           9.0298    2.8143    9.7668 H         1 4861000     0.0000 
     64 H          11.3265    8.1099   14.1104 H         1 4861000     0.0000 
     65 H          12.1129    8.5370   12.7742 H         1 4861000     0.0000 
     66 H          10.5401    8.8420   12.9138 H         1 4861000     0.0000 
     67 H           8.6237    4.5761   11.9860 H         1 4861000     0.0000 
@<TRIPOS>BOND
     1    2    1 2    
     2    3    2 1    
     3    4    2 1    
     4    8    3 1    
     5   33    3 1    
     6   34    3 1    
     7    5    4 2    
     8   35    4 1    
     9    6    5 1    
    10    7    5 1    
    11   32    6 1    
    12   36    6 1    
    13   37    6 1    
    14    8    7 1    
    15    9    7 2    
    16   38    8 1    
    17   39    8 1    
    18   10    9 1    
    19   31    9 1    
    20   11   10 1    
    21   20   10 1    
    22   40   10 1    
    23   12   11 ar   
    24   19   11 ar   
    25   13   12 ar   
    26   41   12 1    
    27   14   13 ar   
    28   42   13 1    
    29   15   14 1    
    30   18   14 ar   
    31   16   15 1    
    32   17   15 1    
    33   55   16 1    
    34   56   16 1    
    35   57   16 1    
    36   58   17 1    
    37   59   17 1    
    38   60   17 1    
    39   19   18 ar   
    40   43   18 1    
    41   44   19 1    
    42   21   20 1    
    43   45   20 1    
    44   46   20 1    
    45   22   21 1    
    46   23   21 1    
    47   30   21 1    
    48   61   22 1    
    49   62   22 1    
    50   63   22 1    
    51   24   23 1    
    52   27   23 1    
    53   28   23 1    
    54   25   24 3    
    55   26   25 1    
    56   64   26 1    
    57   65   26 1    
    58   66   26 1    
    59   67   27 1    
    60   29   28 1    
    61   47   28 1    
    62   48   28 1    
    63   30   29 1    
    64   49   29 1    
    65   50   29 1    
    66   31   30 1    
    67   51   30 1    
    68   32   31 1    
    69   52   31 1    
    70   53   32 1    
    71   54   32 1    
@<TRIPOS>SUBSTRUCTURE
     1 4861000     1 GROUP   
@<TRIPOS>SET

