#    Name: 4m52_M52_2_INTS_M
#    Modification time : Tue Mar 25 11:51:46 2014

@<TRIPOS>MOLECULE
4m52_M52_2_INTS_M
   54     0     6     0     0
SMALL
NO_CHARGES


@<TRIPOS>ATOM
      1 CA        -81.3980   16.3200   36.9595 C.3       2 GLC5        0.0000 
      2 CA        -80.6840   18.3950   36.7690 C.3       6 GLL5        0.0000 
      3 CA        -82.1120   14.2450   37.1500 C.3       4 GLP5        0.0000 
      4 CA        -80.2855   17.6030   38.6120 C.3       2 GLC5        0.0000 
      5 CA        -79.8870   16.8110   40.4550 C.3       4 GLP5        0.0000 
      6 CA        -80.5245   18.7460   40.1645 C.3       2 GLC5        0.0000 
      7 CA        -81.1620   20.6810   39.8740 C.3       6 GLL5        0.0000 
      8 CA        -87.2220   21.1940   41.7550 C.3       2 GLC5        0.0000 
      9 CA        -85.5470   21.5930   41.1610 C.3       6 GLL5        0.0000 
     10 CA        -88.8970   20.7950   42.3490 C.3       4 GLP5        0.0000 
     11 CA        -86.2605   19.7155   40.3255 C.3       2 GLC5        0.0000 
     12 CA        -86.9740   17.8380   39.4900 C.3       4 GLP5        0.0000 
     13 CA        -86.4040   21.8440   39.3040 C.3       2 GLC5        0.0000 
     14 CA        -87.2610   22.0950   37.4470 C.3       4 GLP5        0.0000 
     15 CA        -86.6280   23.1100   42.3860 C.3       2 GLC5        0.0000 
     16 CA        -87.7090   24.6270   43.6110 C.3       4 GLP5        0.0000 
     17 CA        -85.6905   20.5770   43.1000 C.3       2 GLC5        0.0000 
     18 CA        -85.8340   19.5610   45.0390 C.3       4 GLP5        0.0000 
     19 CA        -85.1835   23.7920   41.4570 C.3       2 GLC5        0.0000 
     20 CA        -84.8200   25.9910   41.7530 C.3       4 GLP5        0.0000 
     21 CA        -85.3710   21.5745   38.3735 C.3       2 GLC5        0.0000 
     22 CA        -83.4810   21.0540   39.3000 C.3       6 GLL5        0.0000 
     23 O         -78.8460   20.2590   38.4580 O.2       1 ALC1        0.0000 
     24 O         -79.8180   20.3970   39.4850 O.2       5 ALL1        0.0000 
     25 O         -77.8740   20.1210   37.4310 O.2       3 ALP1        0.0000 
     26 CA        -84.7395   19.5680   35.8025 C.3       2 GLC5        0.0000 
     27 CA        -82.9520   18.5940   35.9800 C.3       6 GLL5        0.0000 
     28 CA        -86.5270   20.5420   35.6250 C.3       4 GLP5        0.0000 
     29 CA        -83.3775   20.2700   34.5930 C.3       2 GLC5        0.0000 
     30 CA        -83.8030   21.9460   33.2060 C.3       4 GLP5        0.0000 
     31 CA        -82.7260   17.3995   34.1420 C.3       2 GLC5        0.0000 
     32 CA        -82.5000   16.2050   32.3040 C.3       4 GLP5        0.0000 
     33 CA        -84.7410   17.9340   35.6220 C.3       2 GLC5        0.0000 
     34 CA        -86.5300   17.2740   35.2640 C.3       4 GLP5        0.0000 
     35 O         -78.9720   16.1315   36.8865 O.2       1 ALC1        0.0000 
     36 O         -79.2970   16.6570   35.6550 O.2       5 ALL1        0.0000 
     37 O         -78.6470   15.6060   38.1180 O.2       3 ALP1        0.0000 
     38 CA        -79.3160   13.5000   35.9580 C.3       2 GLC5        0.0000 
     39 CA        -78.0740   14.7080   34.9280 C.3       6 GLL5        0.0000 
     40 CA        -80.5580   12.2920   36.9880 C.3       4 GLP5        0.0000 
     41 CA        -77.4515   14.1370   36.7615 C.3       2 GLC5        0.0000 
     42 CA        -76.8290   13.5660   38.5950 C.3       4 GLP5        0.0000 
     43 CA        -76.7810   11.5440   32.1300 C.3       2 GLC5        0.0000 
     44 CA        -75.6740   13.0680   31.8320 C.3       6 GLL5        0.0000 
     45 CA        -77.8880   10.0200   32.4280 C.3       4 GLP5        0.0000 
     46 CA        -74.6390   13.5000   33.6675 C.3       2 GLC5        0.0000 
     47 CA        -73.6040   13.9320   35.5030 C.3       4 GLP5        0.0000 
     48 CA        -74.9080   12.7460   30.1480 C.3       2 GLC5        0.0000 
     49 CA        -74.1420   12.4240   28.4640 C.3       4 GLP5        0.0000 
     50 CA        -77.2103   16.7310   35.5468 C.3       2 GLC5        0.0000 
     51 CA        -78.7290   15.8800   34.5970 C.3       6 GLL5        0.0000 
     52 CA        -76.0190   18.1680   36.3310 C.3       4 GLP5        0.0000 
     53 CA        -80.4924   15.9874   32.6989 C.3       2 GLC5        0.0000 
     54 CA        -78.7940   16.2690   33.2540 C.3       6 GLL5        0.0000 
@<TRIPOS>BOND
@<TRIPOS>SUBSTRUCTURE
     1 ALC1       23 GROUP        1 X    ALC  0     ROOT ALC X 1
     2 GLC5        1 GROUP        1 X    GLC  0     **** GLC X 6
     3 ALP1       25 GROUP        1 Y    ALP  0     ROOT ALP Y 8
     4 GLP5        3 GROUP        1 Y    GLP  0     **** GLP Y 13
     5 ALL1       24 GROUP        1 Z    ALL  0     ROOT ALL Z 15
     6 GLL5        2 GROUP        1 Z    GLL  0     **** GLL Z 20
@<TRIPOS>SET

