#    Name: 4m52_M52_2_ligand
#    Modification time : Tue Mar 25 11:51:46 2014

@<TRIPOS>MOLECULE
4m52_M52_2_ligand
   42    43     1     0     0
SMALL
NO_CHARGES


@<TRIPOS>ATOM
      1 C10       -80.6840   18.3950   36.7690 C.3       1 M52502      0.0000 
      2 C13       -82.7160   21.1140   41.5520 C.ar      1 M52502      0.0000 
      3 C15       -81.1620   20.6810   39.8740 C.ar      1 M52502      0.0000 
      4 BR        -85.5470   21.5930   41.1610 Br        1 M52502      0.0000 
      5 C12       -83.7270   21.2150   40.6330 C.ar      1 M52502      0.0000 
      6 C14       -83.4810   21.0540   39.3000 C.ar      1 M52502      0.0000 
      7 N03       -81.4560   20.8500   41.1910 N.ar      1 M52502      0.0000 
      8 N04       -79.8180   20.3970   39.4850 N.pl3     1 M52502      0.0000 
      9 C11       -82.1830   20.7970   38.9050 C.ar      1 M52502      0.0000 
     10 S01       -81.8750   20.5680   37.1880 S.o2      1 M52502      0.0000 
     11 O04       -82.7970   21.3140   36.3640 O.2       1 M52502      0.0000 
     12 C09       -82.9520   18.5940   35.9800 C.3       1 M52502      0.0000 
     13 O03       -80.5830   21.0720   36.7870 O.2       1 M52502      0.0000 
     14 N01       -81.9880   18.9560   36.9730 N.pl3     1 M52502      0.0000 
     15 C01       -80.2360   17.7250   35.5150 C.2       1 M52502      0.0000 
     16 O01       -80.6450   18.0900   34.4240 O.2       1 M52502      0.0000 
     17 N02       -79.2970   16.6570   35.6550 N.am      1 M52502      0.0000 
     18 C02       -78.7290   15.8800   34.5970 C.ar      1 M52502      0.0000 
     19 C04       -78.0740   14.7080   34.9280 C.ar      1 M52502      0.0000 
     20 C05       -78.7940   16.2690   33.2540 C.ar      1 M52502      0.0000 
     21 C07       -78.2080   15.4650   32.2620 C.ar      1 M52502      0.0000 
     22 C08       -77.5570   14.2840   32.6260 C.ar      1 M52502      0.0000 
     23 C03       -77.5000   13.9250   33.9560 C.ar      1 M52502      0.0000 
     24 O02       -76.9790   13.4750   31.6740 O.3       1 M52502      0.0000 
     25 C06       -75.6740   13.0680   31.8320 C.3       1 M52502      0.0000 
     26 H         -80.4569   17.6538   37.6404 H         1 M52502      0.0000 
     27 H         -79.8857   19.2095   37.0132 H         1 M52502      0.0000 
     28 H         -82.9529   21.2507   42.5699 H         1 M52502      0.0000 
     29 H         -84.2298   21.1203   38.6092 H         1 M52502      0.0000 
     30 H         -79.5516   20.6994   38.5698 H         1 M52502      0.0000 
     31 H         -79.2560   19.9195   40.1604 H         1 M52502      0.0000 
     32 H         -78.9898   16.4157   36.6433 H         1 M52502      0.0000 
     33 H         -78.0175   14.4200   35.9234 H         1 M52502      0.0000 
     34 H         -79.2676   17.1383   32.9924 H         1 M52502      0.0000 
     35 H         -78.2597   15.7459   31.2805 H         1 M52502      0.0000 
     36 H         -77.0133   13.0455   34.2259 H         1 M52502      0.0000 
     37 H         -82.6735   18.8906   35.0665 H         1 M52502      0.0000 
     38 H         -83.0881   17.6042   35.9379 H         1 M52502      0.0000 
     39 H         -83.8452   19.0052   36.1621 H         1 M52502      0.0000 
     40 H         -75.0450   13.8444   31.8714 H         1 M52502      0.0000 
     41 H         -75.5475   12.5452   32.6750 H         1 M52502      0.0000 
     42 H         -75.3729   12.4848   31.0775 H         1 M52502      0.0000 
@<TRIPOS>BOND
     1   14    1 1    
     2   15    1 1    
     3   26    1 1    
     4   27    1 1    
     5    5    2 ar   
     6    7    2 ar   
     7   28    2 1    
     8    7    3 ar   
     9    8    3 1    
    10    9    3 ar   
    11    5    4 1    
    12    6    5 ar   
    13    9    6 ar   
    14   29    6 1    
    15   30    8 1    
    16   31    8 1    
    17   10    9 1    
    18   11   10 2    
    19   13   10 2    
    20   14   10 1    
    21   14   12 1    
    22   37   12 1    
    23   38   12 1    
    24   39   12 1    
    25   16   15 2    
    26   17   15 am   
    27   18   17 1    
    28   32   17 1    
    29   19   18 ar   
    30   20   18 ar   
    31   23   19 ar   
    32   33   19 1    
    33   21   20 ar   
    34   34   20 1    
    35   22   21 ar   
    36   35   21 1    
    37   23   22 ar   
    38   24   22 1    
    39   36   23 1    
    40   25   24 1    
    41   40   25 1    
    42   41   25 1    
    43   42   25 1    
@<TRIPOS>SUBSTRUCTURE
     1 M52502      1 GROUP   
@<TRIPOS>SET

