#    Name: 3RBM_4_CAVITY_N1_6.mol2
#    Modification time : Mon Mar 10 19:55:33 2014

@<TRIPOS>MOLECULE
3RBM_4_CAVITY_N1_6.mol2
   90     0     7     0     0
SMALL
NO_CHARGES


@<TRIPOS>ATOM
      1 NZ        -70.1900   -7.4421   18.1409 N.2       4 LYS4        0.0000 
      2 NZ        -69.4250   -8.7237   17.9924 N.2       4 LYS4        0.0000 
      3 NZ        -71.3401   -8.1978   18.7378 N.2       4 LYS4        0.0000 
      4 NZ        -70.5750   -9.4794   18.5893 N.2       4 LYS4        0.0000 
      5 OD1       -69.8099  -10.7611   18.4407 O.3       3 ASP3        0.0000 
      6 O         -69.0449  -12.0427   18.2921 O.2       2 ALA2        0.0000 
      7 NZ        -71.7251  -10.2351   19.1862 N.2       4 LYS4        0.0000 
      8 NZ        -70.9600  -11.5168   19.0376 N.2       4 LYS4        0.0000 
      9 O         -70.1949  -12.7984   18.8890 O.2       2 ALA2        0.0000 
     10 CZ        -72.1100  -12.2725   19.6345 C.ar      5 PHE5        0.0000 
     11 CZ        -71.3450  -13.5541   19.4859 C.ar      5 PHE5        0.0000 
     12 CZ        -72.4950  -14.3098   20.0828 C.ar      5 PHE5        0.0000 
     13 OD1       -71.5400   -6.3510   16.9214 O.3       3 ASP3        0.0000 
     14 OD1       -70.7749   -7.6326   16.7729 O.3       3 ASP3        0.0000 
     15 OD1       -70.0098   -8.9142   16.6243 O.3       3 ASP3        0.0000 
     16 O         -69.2448  -10.1959   16.4757 O.2       2 ALA2        0.0000 
     17 N         -72.6900   -7.1067   17.5183 N.2       2 ALA2        0.0000 
     18 N         -71.9249   -8.3883   17.3698 N.2       2 ALA2        0.0000 
     19 DU        -71.1599   -9.6699   17.2212 H         7 CUB7        0.0000 
     20 O         -70.3948  -10.9516   17.0726 O.2       2 ALA2        0.0000 
     21 N         -73.0750   -9.1440   17.9667 N.2       2 ALA2        0.0000 
     22 DU        -72.3099  -10.4257   17.8181 H         7 CUB7        0.0000 
     23 CA        -71.5449  -11.7073   17.6695 C.3       6 GLY6        0.0000 
     24 CA        -70.7798  -12.9889   17.5209 C.3       6 GLY6        0.0000 
     25 OG        -74.2250   -9.8997   18.5636 O.2       1 SER1        0.0000 
     26 O         -73.4600  -11.1814   18.4150 O.2       2 ALA2        0.0000 
     27 O         -72.6949  -12.4630   18.2664 O.2       2 ALA2        0.0000 
     28 O         -71.9298  -13.7447   18.1178 O.2       2 ALA2        0.0000 
     29 OD1       -72.1248   -6.5415   15.5534 O.3       3 ASP3        0.0000 
     30 NZ        -71.3598   -7.8231   15.4048 N.2       4 LYS4        0.0000 
     31 NZ        -70.5947   -9.1048   15.2562 N.2       4 LYS4        0.0000 
     32 NZ        -69.8296  -10.3864   15.1076 N.2       4 LYS4        0.0000 
     33 CA        -73.2749   -7.2972   16.1503 C.3       6 GLY6        0.0000 
     34 DU        -72.5098   -8.5788   16.0017 H         7 CUB7        0.0000 
     35 CA        -71.7447   -9.8605   15.8531 C.3       6 GLY6        0.0000 
     36 CA        -70.9797  -11.1421   15.7045 C.3       6 GLY6        0.0000 
     37 OG        -74.4249   -8.0529   16.7472 O.2       1 SER1        0.0000 
     38 OG        -73.6599   -9.3346   16.5986 O.2       1 SER1        0.0000 
     39 OG        -72.8948  -10.6162   16.4500 O.2       1 SER1        0.0000 
     40 CA        -72.1297  -11.8978   16.3014 C.3       6 GLY6        0.0000 
     41 OG        -74.8099  -10.0903   17.1955 O.2       1 SER1        0.0000 
     42 N         -72.7097   -6.7320   14.1853 N.2       2 ALA2        0.0000 
     43 NZ        -71.9446   -8.0137   14.0367 N.2       4 LYS4        0.0000 
     44 CA        -71.1796   -9.2953   13.8881 C.3       6 GLY6        0.0000 
     45 N         -73.8597   -7.4877   14.7822 N.2       2 ALA2        0.0000 
     46 DU        -73.0947   -8.7694   14.6336 H         7 CUB7        0.0000 
     47 CA        -72.3296  -10.0510   14.4850 C.3       6 GLY6        0.0000 
     48 N         -75.0098   -8.2434   15.3791 N.2       2 ALA2        0.0000 
     49 OG        -74.2447   -9.5251   15.2305 O.2       1 SER1        0.0000 
     50 OG        -73.4796  -10.8067   15.0819 O.2       1 SER1        0.0000 
     51 NZ        -69.6101  -12.6079   20.2571 N.2       4 LYS4        0.0000 
     52 CZ        -71.5252  -12.0820   21.0026 C.ar      5 PHE5        0.0000 
     53 CZ        -70.7601  -13.3636   20.8540 C.ar      5 PHE5        0.0000 
     54 CA        -72.5295   -8.2042   12.6686 C.3       6 GLY6        0.0000 
     55 N         -74.4446   -7.6783   13.4141 N.2       2 ALA2        0.0000 
     56 CA        -73.6795   -8.9599   13.2655 C.3       6 GLY6        0.0000 
     57 N         -72.9145  -10.2415   13.1169 N.2       2 ALA2        0.0000 
     58 N         -75.5946   -8.4340   14.0110 N.2       2 ALA2        0.0000 
     59 OG        -74.8296   -9.7156   13.8624 O.2       1 SER1        0.0000 
     60 CA        -76.9642   -6.9682    9.4585 C.3       6 GLY6        0.0000 
     61 CZ        -76.1992   -8.2499    9.3099 C.ar      5 PHE5        0.0000 
     62 CA        -78.1143   -7.7239   10.0554 C.3       6 GLY6        0.0000 
     63 CA        -74.4839   -6.9290    6.7480 C.3       6 GLY6        0.0000 
     64 N         -75.6340   -7.6847    7.3449 N.2       2 ALA2        0.0000 
     65 CA        -74.8689   -8.9663    7.1963 C.3       6 GLY6        0.0000 
     66 CA        -77.5491   -7.1587    8.0904 C.3       6 GLY6        0.0000 
     67 CZ        -76.7840   -8.4404    7.9418 C.ar      5 PHE5        0.0000 
     68 CA        -75.0688   -7.1195    5.3799 C.3       6 GLY6        0.0000 
     69 CA        -74.3037   -8.4011    5.2313 C.3       6 GLY6        0.0000 
     70 CA        -76.2189   -7.8752    5.9768 C.3       6 GLY6        0.0000 
     71 CA        -75.4538   -9.1568    5.8282 C.3       6 GLY6        0.0000 
     72 CA        -76.6038   -9.9125    6.4251 C.3       6 GLY6        0.0000 
     73 N         -75.6537   -7.3100    4.0118 N.2       2 ALA2        0.0000 
     74 CA        -74.8886   -8.5916    3.8633 C.3       6 GLY6        0.0000 
     75 CA        -76.0387   -9.3474    4.4602 C.3       6 GLY6        0.0000 
     76 O         -73.3142   -6.5479    9.4842 O.2       2 ALA2        0.0000 
     77 O         -74.4643   -7.3036   10.0811 O.2       2 ALA2        0.0000 
     78 CA        -76.3794   -6.7777   10.8265 C.3       6 GLY6        0.0000 
     79 CZ        -75.6143   -8.0593   10.6780 C.ar      5 PHE5        0.0000 
     80 CA        -74.8493   -9.3410   10.5294 C.3       6 GLY6        0.0000 
     81 CA        -76.7644   -8.8150   11.2749 C.3       6 GLY6        0.0000 
     82 N         -74.6642   -5.4568    8.2647 N.2       2 ALA2        0.0000 
     83 CA        -73.8991   -6.7384    8.1161 C.3       6 GLY6        0.0000 
     84 N         -75.8142   -6.2125    8.8616 N.2       2 ALA2        0.0000 
     85 DU        -75.0491   -7.4941    8.7130 H         7 CUB7        0.0000 
     86 CA        -74.2841   -8.7758    8.5644 C.3       6 GLY6        0.0000 
     87 N         -73.1143   -8.3947   11.3006 N.2       2 ALA2        0.0000 
     88 N         -75.0295   -7.8688   12.0460 N.2       2 ALA2        0.0000 
     89 CA        -74.2644   -9.1504   11.8975 C.3       6 GLY6        0.0000 
     90 CA        -76.1795   -8.6245   12.6429 C.3       6 GLY6        0.0000 
@<TRIPOS>BOND
@<TRIPOS>SUBSTRUCTURE
     1 SER1       25 GROUP   
     2 ALA2        6 GROUP   
     3 ASP3        5 GROUP   
     4 LYS4        1 GROUP   
     5 PHE5       10 GROUP   
     6 GLY6       23 GROUP   
     7 CUB7       19 GROUP   
@<TRIPOS>SET

