#    Name: 3rbm_B73_4_INTS_M
#    Modification time : Mon Apr  7 20:06:00 2014

@<TRIPOS>MOLECULE
3rbm_B73_4_INTS_M
   85     0    12     0     0
SMALL
NO_CHARGES


@<TRIPOS>ATOM
      1 CA        -77.0795   -9.4435    3.1665 C.3       4 GLC5        0.0000 
      2 CA        -75.2680  -10.0750    2.7270 C.3      12 GLL5        0.0000 
      3 CA        -78.8910   -8.8120    3.6060 C.3       8 GLP5        0.0000 
      4 CA        -75.8590  -11.6945    1.4825 C.3       4 GLC5        0.0000 
      5 CA        -76.4500  -13.3140    0.2380 C.3       8 GLP5        0.0000 
      6 NZ        -67.4535   -9.7085   19.2590 N.4       2 LYC4        0.0000 
      7 NZ        -67.8490   -8.6010   18.6660 N.4      10 LYL4        0.0000 
      8 NZ        -67.0580  -10.8160   19.8520 N.4       6 LYP4        0.0000 
      9 Zn        -67.7495   -7.7055   19.1120 Zn        3 ZIC7        0.0000 
     10 Zn        -67.8490   -8.6010   18.6660 Zn       11 ZIL7        0.0000 
     11 Zn        -67.6500   -6.8100   19.5580 Zn        7 ZIP7        0.0000 
     12 Zn        -68.3825   -6.6250   18.9460 Zn        3 ZIC7        0.0000 
     13 Zn        -69.1150   -6.4400   18.3340 Zn       11 ZIL7        0.0000 
     14 NZ        -67.9925  -11.6555   16.8620 N.4       2 LYC4        0.0000 
     15 NZ        -68.5300  -10.7560   17.4360 N.4      10 LYL4        0.0000 
     16 NZ        -67.2070  -12.8040   15.0080 N.4       6 LYP4        0.0000 
     17 NZ        -67.7940  -10.7860   18.6440 N.4       2 LYC4        0.0000 
     18 N         -67.9925  -11.6555   16.8620 N.am      1 SEC2        0.0000 
     19 N         -68.5300  -10.7560   17.4360 N.am      9 SEL2        0.0000 
     20 N         -67.4550  -12.5550   16.2880 N.am      5 SEP2        0.0000 
     21 N         -67.7940  -10.7860   18.6440 N.am      1 SEC2        0.0000 
     22 N         -67.0580  -10.8160   19.8520 N.am      5 SEP2        0.0000 
     23 NZ        -67.2080  -10.4500   15.1145 N.4       2 LYC4        0.0000 
     24 NZ        -67.1990   -9.0870   16.1010 N.4      10 LYL4        0.0000 
     25 Zn        -67.3800   -8.1615   15.6220 Zn        3 ZIC7        0.0000 
     26 Zn        -67.1990   -9.0870   16.1010 Zn       11 ZIL7        0.0000 
     27 Zn        -67.5610   -7.2360   15.1430 Zn        7 ZIP7        0.0000 
     28 N         -67.2080  -10.4500   15.1145 N.am      1 SEC2        0.0000 
     29 N         -67.1990   -9.0870   16.1010 N.am      9 SEL2        0.0000 
     30 N         -67.2170  -11.8130   14.1280 N.am      5 SEP2        0.0000 
     31 N         -67.3270  -10.8210   16.1945 N.am      1 SEC2        0.0000 
     32 Zn        -69.6950   -5.5040   15.0435 Zn        3 ZIC7        0.0000 
     33 Zn        -69.5140   -5.9320   15.7490 Zn       11 ZIL7        0.0000 
     34 Zn        -69.8760   -5.0760   14.3380 Zn        7 ZIP7        0.0000 
     35 Zn        -68.5375   -6.5840   15.4460 Zn        3 ZIC7        0.0000 
     36 NZ        -71.9745   -5.0960   17.5730 N.4       2 LYC4        0.0000 
     37 NZ        -71.5200   -6.3420   17.2010 N.4      10 LYL4        0.0000 
     38 NZ        -72.4290   -3.8500   17.9450 N.4       6 LYP4        0.0000 
     39 N         -71.9745   -5.0960   17.5730 N.am      1 SEC2        0.0000 
     40 N         -71.5200   -6.3420   17.2010 N.am      9 SEL2        0.0000 
     41 N         -72.4290   -3.8500   17.9450 N.am      5 SEP2        0.0000 
     42 CA        -74.4565   -6.2490   16.5655 C.3       4 GLC5        0.0000 
     43 CA        -74.2020   -8.3710   16.2620 C.3      12 GLL5        0.0000 
     44 CA        -74.7110   -4.1270   16.8690 C.3       8 GLP5        0.0000 
     45 CA        -71.2865   -8.6110   13.2755 C.3       4 GLC5        0.0000 
     46 CA        -72.4900   -8.6940   14.9200 C.3      12 GLL5        0.0000 
     47 CA        -70.0830   -8.5280   11.6310 C.3       8 GLP5        0.0000 
     48 CA        -75.6140   -5.3640    4.8240 C.3       4 GLC5        0.0000 
     49 CA        -75.7690   -7.1970    5.3700 C.3      12 GLL5        0.0000 
     50 CA        -75.4590   -3.5310    4.2780 C.3       8 GLP5        0.0000 
     51 CA        -78.1420   -6.6230    7.0580 C.3       4 GLC5        0.0000 
     52 CA        -76.3510   -7.3260    6.7660 C.3      12 GLL5        0.0000 
     53 CA        -79.9330   -5.9200    7.3500 C.3       8 GLP5        0.0000 
     54 CA        -73.6735   -8.2395    7.1885 C.3       4 GLC5        0.0000 
     55 CA        -75.2840   -7.1630    7.7980 C.3      12 GLL5        0.0000 
     56 CA        -72.0630   -9.3160    6.5790 C.3       8 GLP5        0.0000 
     57 CA        -77.0355   -8.0140   12.0905 C.3       4 GLC5        0.0000 
     58 CA        -75.2030   -8.0000   11.5260 C.3      12 GLL5        0.0000 
     59 CA        -78.8680   -8.0280   12.6550 C.3       8 GLP5        0.0000 
     60 CA        -72.0855   -8.4300   12.0830 C.3       4 GLC5        0.0000 
     61 CA        -74.0880   -8.3320   12.5350 C.3      12 GLL5        0.0000 
     62 CA        -76.7740   -8.0285   13.2855 C.3       4 GLC5        0.0000 
     63 CA        -74.6800   -8.0290   13.9160 C.3      12 GLL5        0.0000 
     64 CA        -76.1670   -9.4515   14.7705 C.3       4 GLC5        0.0000 
     65 CA        -77.6540  -10.8740   15.6250 C.3       8 GLP5        0.0000 
     66 CA        -74.4270  -10.8442    3.4313 C.3       4 GLC5        0.0000 
     67 CA        -73.9180   -9.3520    2.8960 C.3      12 GLL5        0.0000 
     68 CA        -74.2610  -11.9750    4.0510 C.3       8 GLP5        0.0000 
     69 CA        -73.0282   -9.0375    4.9772 C.3       4 GLC5        0.0000 
     70 CA        -74.0690   -8.1660    3.8550 C.3      12 GLL5        0.0000 
     71 CA        -74.4232  -10.1512    4.2235 C.3       4 GLC5        0.0000 
     72 CA        -73.3484   -7.3390    3.4986 C.3       4 GLC5        0.0000 
     73 CA        -72.1490   -6.0540    2.8410 C.3       8 GLP5        0.0000 
     74 CA        -73.7493   -8.5795    5.8662 C.3       4 GLC5        0.0000 
     75 CA        -77.3211   -8.3723    5.5254 C.3       4 GLC5        0.0000 
     76 CA        -75.1020   -8.4890    4.9370 C.3      12 GLL5        0.0000 
     77 CA        -78.7490   -9.1600    5.0910 C.3       8 GLP5        0.0000 
     78 CA        -74.8830   -5.7165    9.5063 C.3       4 GLC5        0.0000 
     79 CA        -74.2290   -3.9770   10.5580 C.3       8 GLP5        0.0000 
     80 CA        -76.0673   -9.5228    9.5673 C.3       4 GLC5        0.0000 
     81 CA        -74.6430   -7.8160   10.1200 C.3      12 GLL5        0.0000 
     82 CA        -76.9180  -11.2630    9.5190 C.3       8 GLP5        0.0000 
     83 CA        -74.5760   -5.9425   10.6905 C.3       4 GLC5        0.0000 
     84 CA        -74.8518  -10.0505   11.5578 C.3       4 GLC5        0.0000 
     85 CA        -75.0580  -11.9350   11.0850 C.3       8 GLP5        0.0000 
@<TRIPOS>BOND
@<TRIPOS>SUBSTRUCTURE
     1 SEC2       18 GROUP        1 X    SEC  0     ROOT SEC X 2
     2 LYC4        6 GROUP        1 X    LYC  0     **** LYC X 4
     3 ZIC7        9 GROUP        1 X    ZIC  0     **** ZIC X 5
     4 GLC5        1 GROUP        1 X    GLC  0     **** GLC X 6
     5 SEP2       20 GROUP        1 Y    SEP  0     ROOT SEP Y 9
     6 LYP4        8 GROUP        1 Y    LYP  0     **** LYP Y 11
     7 ZIP7       11 GROUP        1 Y    ZIP  0     **** ZIP Y 12
     8 GLP5        3 GROUP        1 Y    GLP  0     **** GLP Y 13
     9 SEL2       19 GROUP        1 Z    SEL  0     ROOT SEL Z 16
    10 LYL4        7 GROUP        1 Z    LYL  0     **** LYL Z 18
    11 ZIL7       10 GROUP        1 Z    ZIL  0     **** ZIL Z 19
    12 GLL5        2 GROUP        1 Z    GLL  0     **** GLL Z 20
@<TRIPOS>SET

