#    Name: 3rbm_B73_4_ligand
#    Modification time : Mon Apr  7 20:06:00 2014

@<TRIPOS>MOLECULE
3rbm_B73_4_ligand
   58    58     1     0     0
SMALL
NO_CHARGES


@<TRIPOS>ATOM
      1 CAA       -75.2680  -10.0750    2.7270 C.3       1 B732001     0.0000 
      2 OAB       -67.8490   -8.6010   18.6660 O.co2     1 B732001     0.0000 
      3 OAC       -69.1150   -6.4400   18.3340 O.co2     1 B732001     0.0000 
      4 OAD       -68.5300  -10.7560   17.4360 O.co2     1 B732001     0.0000 
      5 OAE       -67.1990   -9.0870   16.1010 O.co2     1 B732001     0.0000 
      6 OAF       -69.5140   -5.9320   15.7490 O.co2     1 B732001     0.0000 
      7 OAG       -71.5200   -6.3420   17.2010 O.co2     1 B732001     0.0000 
      8 CAH       -74.2020   -8.3710   16.2620 C.2       1 B732001     0.0000 
      9 CAI       -73.1370   -8.6360   17.0320 C.2       1 B732001     0.0000 
     10 CAJ       -72.4900   -8.6940   14.9200 C.2       1 B732001     0.0000 
     11 CAK       -73.9180   -9.3520    2.8960 C.3       1 B732001     0.0000 
     12 CAL       -74.0690   -8.1660    3.8550 C.3       1 B732001     0.0000 
     13 CAM       -75.1020   -8.4890    4.9370 C.3       1 B732001     0.0000 
     14 CAN       -75.7690   -7.1970    5.3700 C.3       1 B732001     0.0000 
     15 CAO       -76.3510   -7.3260    6.7660 C.3       1 B732001     0.0000 
     16 CAP       -75.2840   -7.1630    7.7980 C.3       1 B732001     0.0000 
     17 CAQ       -75.7900   -7.7490    9.1110 C.3       1 B732001     0.0000 
     18 CAR       -74.6430   -7.8160   10.1200 C.3       1 B732001     0.0000 
     19 CAS       -75.2030   -8.0000   11.5260 C.3       1 B732001     0.0000 
     20 CAT       -74.0880   -8.3320   12.5350 C.3       1 B732001     0.0000 
     21 CAU       -74.6800   -8.0290   13.9160 C.3       1 B732001     0.0000 
     22 CAV       -70.8530   -9.3500   16.6700 C.3       1 B732001     0.0000 
     23 CAW       -69.6640   -8.4410   16.4980 C.3       1 B732001     0.0000 
     24 NAX       -73.8310   -8.5510   14.9890 N.pl3     1 B732001     0.0000 
     25 NAY       -72.0880   -8.7260   16.2010 N.pl3     1 B732001     0.0000 
     26 PAZ       -68.2450   -9.1480   17.3370 P.3       1 B732001     0.0000 
     27 PBA       -69.8940   -6.7440   17.1000 P.3       1 B732001     0.0000 
     28 H         -75.0738   -8.1007   16.5701 H         1 B732001     0.0000 
     29 H         -73.1269   -8.7399   17.9812 H         1 B732001     0.0000 
     30 H         -71.9591   -8.7569   14.1439 H         1 B732001     0.0000 
     31 H         -73.5844   -8.9931    1.9289 H         1 B732001     0.0000 
     32 H         -73.1903  -10.0488    3.2964 H         1 B732001     0.0000 
     33 H         -74.3939   -7.2937    3.2969 H         1 B732001     0.0000 
     34 H         -73.1115   -7.9597    4.3224 H         1 B732001     0.0000 
     35 H         -74.6035   -8.9435    5.7807 H         1 B732001     0.0000 
     36 H         -75.8417   -9.1645    4.5326 H         1 B732001     0.0000 
     37 H         -76.5673   -6.9491    4.6676 H         1 B732001     0.0000 
     38 H         -75.0345   -6.3893    5.3584 H         1 B732001     0.0000 
     39 H         -76.8196   -8.3082    6.8661 H         1 B732001     0.0000 
     40 H         -77.1209   -6.5624    6.9018 H         1 B732001     0.0000 
     41 H         -75.0595   -6.1135    7.9431 H         1 B732001     0.0000 
     42 H         -74.3876   -7.6915    7.4978 H         1 B732001     0.0000 
     43 H         -76.1729   -8.7482    8.9373 H         1 B732001     0.0000 
     44 H         -76.5792   -7.1203    9.5072 H         1 B732001     0.0000 
     45 H         -74.0729   -6.8945   10.0758 H         1 B732001     0.0000 
     46 H         -73.9990   -8.6535    9.8751 H         1 B732001     0.0000 
     47 H         -75.9301   -8.8122   11.5243 H         1 B732001     0.0000 
     48 H         -75.7023   -7.0837   11.8413 H         1 B732001     0.0000 
     49 H         -73.2483   -7.7013   12.3567 H         1 B732001     0.0000 
     50 H         -73.8438   -9.3666   12.4668 H         1 B732001     0.0000 
     51 H         -75.6831   -8.4738   13.9614 H         1 B732001     0.0000 
     52 H         -74.7959   -6.9406   14.0053 H         1 B732001     0.0000 
     53 H         -70.9389   -9.6183   17.7366 H         1 B732001     0.0000 
     54 H         -70.6621  -10.2864   16.1189 H         1 B732001     0.0000 
     55 H         -69.3317   -8.3274   15.4966 H         1 B732001     0.0000 
     56 H         -75.1967  -10.8539    2.1039 H         1 B732001     0.0000 
     57 H         -75.6126  -10.4265    3.5975 H         1 B732001     0.0000 
     58 H         -75.9710   -9.4674    2.3574 H         1 B732001     0.0000 
@<TRIPOS>BOND
     1   11    1 1    
     2   56    1 1    
     3   57    1 1    
     4   58    1 1    
     5   26    2 ar   
     6   27    3 ar   
     7   26    4 ar   
     8   26    5 ar   
     9   27    6 ar   
    10   27    7 ar   
    11    9    8 2    
    12   24    8 1    
    13   28    8 1    
    14   25    9 1    
    15   29    9 1    
    16   24   10 1    
    17   25   10 2    
    18   30   10 1    
    19   12   11 1    
    20   31   11 1    
    21   32   11 1    
    22   13   12 1    
    23   33   12 1    
    24   34   12 1    
    25   14   13 1    
    26   35   13 1    
    27   36   13 1    
    28   15   14 1    
    29   37   14 1    
    30   38   14 1    
    31   16   15 1    
    32   39   15 1    
    33   40   15 1    
    34   17   16 1    
    35   41   16 1    
    36   42   16 1    
    37   18   17 1    
    38   43   17 1    
    39   44   17 1    
    40   19   18 1    
    41   45   18 1    
    42   46   18 1    
    43   20   19 1    
    44   47   19 1    
    45   48   19 1    
    46   21   20 1    
    47   49   20 1    
    48   50   20 1    
    49   24   21 1    
    50   51   21 1    
    51   52   21 1    
    52   23   22 1    
    53   25   22 1    
    54   53   22 1    
    55   54   22 1    
    56   26   23 1    
    57   27   23 1    
    58   55   23 1    
@<TRIPOS>SUBSTRUCTURE
     1 B732001     1 GROUP   
@<TRIPOS>SET

