#    Name: 1ei1_ANP_2_INTS_M
#    Modification time : Mon Mar 24 23:57:48 2014

@<TRIPOS>MOLECULE
1ei1_ANP_2_INTS_M
   81     0     9     0     0
SMALL
NO_CHARGES


@<TRIPOS>ATOM
      1 NZ         16.3365   23.9375   13.2640 N.4       2 LYC4        0.0000 
      2 NZ         15.6530   22.7350   14.2300 N.4       8 LYL4        0.0000 
      3 NZ         17.0200   25.1400   12.2980 N.4       5 LYP4        0.0000 
      4 N          16.3365   23.9375   13.2640 N.am      1 SEC2        0.0000 
      5 N          15.6530   22.7350   14.2300 N.am      7 SEL2        0.0000 
      6 N          17.0200   25.1400   12.2980 N.am      4 SEP2        0.0000 
      7 N          14.7415   23.8975   13.9485 N.am      1 SEC2        0.0000 
      8 N          13.8300   25.0600   13.6670 N.am      4 SEP2        0.0000 
      9 NZ         17.3900   23.8960   12.5120 N.4       2 LYC4        0.0000 
     10 NZ         17.7600   22.6520   12.7260 N.4       8 LYL4        0.0000 
     11 N          17.8575   22.3460   11.3260 N.am      1 SEC2        0.0000 
     12 N          17.7600   22.6520   12.7260 N.am      7 SEL2        0.0000 
     13 N          17.9550   22.0400    9.9260 N.am      4 SEP2        0.0000 
     14 N          18.7720   21.8930   12.2255 N.am      1 SEC2        0.0000 
     15 N          19.7840   21.1340   11.7250 N.am      4 SEP2        0.0000 
     16 N          17.3900   23.8960   12.5120 N.am      1 SEC2        0.0000 
     17 N          17.7725   19.7410   14.9690 N.am      1 SEC2        0.0000 
     18 N          17.3980   21.0540   14.4200 N.am      7 SEL2        0.0000 
     19 N          18.1470   18.4280   15.5180 N.am      4 SEP2        0.0000 
     20 N          16.8345   20.5585   15.5555 N.am      1 SEC2        0.0000 
     21 N          16.2710   20.0630   16.6910 N.am      4 SEP2        0.0000 
     22 NZ         13.4730   19.8415    9.9380 N.4       2 LYC4        0.0000 
     23 NZ         14.5040   19.2770   10.8910 N.4       8 LYL4        0.0000 
     24 NZ         12.4420   20.4060    8.9850 N.4       5 LYP4        0.0000 
     25 N          13.4730   19.8415    9.9380 N.am      1 SEC2        0.0000 
     26 N          14.5040   19.2770   10.8910 N.am      7 SEL2        0.0000 
     27 N          12.4420   20.4060    8.9850 N.am      4 SEP2        0.0000 
     28 N          17.9175   18.8375   12.1085 N.am      1 SEC2        0.0000 
     29 N          16.9140   18.9600   11.2820 N.am      7 SEL2        0.0000 
     30 N          18.9210   18.7150   12.9350 N.am      4 SEP2        0.0000 
     31 N          13.9540   18.3550   16.3935 N.am      1 SEC2        0.0000 
     32 N          14.5710   17.3730   15.4140 N.am      7 SEL2        0.0000 
     33 N          13.3370   19.3370   17.3730 N.am      4 SEP2        0.0000 
     34 N          12.2805   19.5110   14.1905 N.am      1 SEC2        0.0000 
     35 N          13.4760   19.1000   14.8650 N.am      7 SEL2        0.0000 
     36 N          11.0850   19.9220   13.5160 N.am      4 SEP2        0.0000 
     37 N          13.4065   19.2185   16.1190 N.am      1 SEC2        0.0000 
     38 CA         13.5325   14.2915   13.5840 C.3       3 GLC5        0.0000 
     39 CA         14.1020   15.9580   12.7790 C.3       9 GLL5        0.0000 
     40 CA         12.9630   12.6250   14.3890 C.3       6 GLP5        0.0000 
     41 CA         12.0270   14.9155   13.1150 C.3       3 GLC5        0.0000 
     42 CA         13.1890   15.7860   11.5920 C.3       9 GLL5        0.0000 
     43 CA         10.8650   14.0450   14.6380 C.3       6 GLP5        0.0000 
     44 CA         14.8070   15.5850   10.4915 C.3       3 GLC5        0.0000 
     45 CA         13.1210   16.8450   10.2480 C.3       9 GLL5        0.0000 
     46 CA         16.4930   14.3250   10.7350 C.3       6 GLP5        0.0000 
     47 N          14.8890   15.4035    9.1900 N.am      1 SEC2        0.0000 
     48 N          14.3500   16.2900    9.8100 N.am      7 SEL2        0.0000 
     49 N          15.4280   14.5170    8.5700 N.am      4 SEP2        0.0000 
     50 CA         11.8115   16.8960    7.6905 C.3       3 GLC5        0.0000 
     51 CA         11.7880   16.2810    9.5320 C.3       9 GLL5        0.0000 
     52 CA         11.8350   17.5110    5.8490 C.3       6 GLP5        0.0000 
     53 N          13.7280   14.9255    8.5555 N.am      1 SEC2        0.0000 
     54 N          12.0280   15.3340    8.5410 N.am      7 SEL2        0.0000 
     55 N          10.9415   16.4645    7.8660 N.am      1 SEC2        0.0000 
     56 N           9.8550   17.5950    7.1910 N.am      4 SEP2        0.0000 
     57 CA         12.3100   13.6775    9.8715 C.3       3 GLC5        0.0000 
     58 CA         11.0800   15.3730   10.6180 C.3       9 GLL5        0.0000 
     59 CA         13.5400   11.9820    9.1250 C.3       6 GLP5        0.0000 
     60 CA         10.9725   14.7090   12.6280 C.3       3 GLC5        0.0000 
     61 N           9.9150   18.7875   12.9285 N.am      1 SEC2        0.0000 
     62 N           8.7450   17.6530   12.3410 N.am      7 SEL2        0.0000 
     63 CA          6.3495   18.4730    8.7780 C.3       3 GLC5        0.0000 
     64 CA          6.7100   17.7940   10.8320 C.3       9 GLL5        0.0000 
     65 CA          5.9890   19.1520    6.7240 C.3       6 GLP5        0.0000 
     66 CA          5.0685   16.9415   11.6065 C.3       3 GLC5        0.0000 
     67 CA          3.4270   16.0890   12.3810 C.3       6 GLP5        0.0000 
     68 CA          6.5285   17.7200    7.8715 C.3       3 GLC5        0.0000 
     69 CA          7.0680   16.2880    9.0190 C.3       9 GLL5        0.0000 
     70 CA          5.3725   14.9365    8.8720 C.3       3 GLC5        0.0000 
     71 CA          3.6770   13.5850    8.7250 C.3       6 GLP5        0.0000 
     72 CA          6.9615   14.4035    9.7750 C.3       3 GLC5        0.0000 
     73 CA          6.8550   12.5190   10.5310 C.3       6 GLP5        0.0000 
     74 CA         15.0693   15.0985   11.4602 C.3       3 GLC5        0.0000 
     75 CA         12.9193   18.0800    9.0270 C.3       3 GLC5        0.0000 
     76 CA         13.3840   19.5970    8.1640 C.3       6 GLP5        0.0000 
     77 CA          8.3960   19.2895   11.6145 C.3       3 GLC5        0.0000 
     78 CA          8.0220   17.4200   11.3820 C.3       9 GLL5        0.0000 
     79 CA          9.4260   20.9720   12.1220 C.3       6 GLP5        0.0000 
     80 CA          7.5768   15.5730   11.6677 C.3       3 GLC5        0.0000 
     81 CA          7.1260   14.0970   12.4780 C.3       6 GLP5        0.0000 
@<TRIPOS>BOND
@<TRIPOS>SUBSTRUCTURE
     1 SEC2        4 GROUP        1 X    SEC  0     ROOT SEC X 2
     2 LYC4        1 GROUP        1 X    LYC  0     **** LYC X 4
     3 GLC5       38 GROUP        1 X    GLC  0     **** GLC X 6
     4 SEP2        6 GROUP        1 Y    SEP  0     ROOT SEP Y 9
     5 LYP4        3 GROUP        1 Y    LYP  0     **** LYP Y 11
     6 GLP5       40 GROUP        1 Y    GLP  0     **** GLP Y 13
     7 SEL2        5 GROUP        1 Z    SEL  0     ROOT SEL Z 16
     8 LYL4        2 GROUP        1 Z    LYL  0     **** LYL Z 18
     9 GLL5       39 GROUP        1 Z    GLL  0     **** GLL Z 20
@<TRIPOS>SET

