#    Name: 1ei1_ANP_2_ligand
#    Modification time : Mon Mar 24 23:57:48 2014

@<TRIPOS>MOLECULE
1ei1_ANP_2_ligand
   42    44     1     0     0
SMALL
NO_CHARGES


@<TRIPOS>ATOM
      1 PG         16.5940   21.9600   13.3850 P.3       1 ANP794      0.0000 
      2 O1G        15.6530   22.7350   14.2300 O.co2     1 ANP794      0.0000 
      3 O2G        17.7600   22.6520   12.7260 O.co2     1 ANP794      0.0000 
      4 O3G        17.3980   21.0540   14.4200 O.co2     1 ANP794      0.0000 
      5 PB         15.6140   19.4640   11.8190 P.3       1 ANP794      0.0000 
      6 O1B        14.5040   19.2770   10.8910 O.co2     1 ANP794      0.0000 
      7 O2B        16.9140   18.9600   11.2820 O.co2     1 ANP794      0.0000 
      8 N3B        15.9390   21.0690   12.1410 N.4       1 ANP794      0.0000 
      9 PA         14.3570   18.1290   14.1470 P.3       1 ANP794      0.0000 
     10 O1A        14.5710   17.3730   15.4140 O.co2     1 ANP794      0.0000 
     11 O2A        13.4760   19.1000   14.8650 O.co2     1 ANP794      0.0000 
     12 O3A        15.5050   18.6480   13.1790 O.3       1 ANP794      0.0000 
     13 O5'        13.4610   17.2530   13.1970 O.3       1 ANP794      0.0000 
     14 C5'        14.1020   15.9580   12.7790 C.3       1 ANP794      0.0000 
     15 C4'        13.1890   15.7860   11.5920 C.3       1 ANP794      0.0000 
     16 O4'        11.9490   15.0860   11.6970 O.3       1 ANP794      0.0000 
     17 C3'        13.1210   16.8450   10.2480 C.3       1 ANP794      0.0000 
     18 O3'        14.3500   16.2900    9.8100 O.3       1 ANP794      0.0000 
     19 C2'        11.7880   16.2810    9.5320 C.3       1 ANP794      0.0000 
     20 O2'        12.0280   15.3340    8.5410 O.3       1 ANP794      0.0000 
     21 C1'        11.0800   15.3730   10.6180 C.3       1 ANP794      0.0000 
     22 N9          9.8760   16.2470   11.2570 N.pl3     1 ANP794      0.0000 
     23 C8          9.8710   16.9740   12.3640 C.2       1 ANP794      0.0000 
     24 N7          8.7450   17.6530   12.3410 N.2       1 ANP794      0.0000 
     25 C5          8.0220   17.4200   11.3820 C.ar      1 ANP794      0.0000 
     26 C6          6.7100   17.7940   10.8320 C.ar      1 ANP794      0.0000 
     27 N6          5.8130   18.6360   11.3340 N.pl3     1 ANP794      0.0000 
     28 N1          6.2410   17.2220    9.6470 N.ar      1 ANP794      0.0000 
     29 C2          7.0680   16.2880    9.0190 C.ar      1 ANP794      0.0000 
     30 N3          8.3190   15.8780    9.4390 N.ar      1 ANP794      0.0000 
     31 C4          8.6890   16.4910   10.6080 C.ar      1 ANP794      0.0000 
     32 H          13.9211   15.2254   13.4779 H         1 ANP794      0.0000 
     33 H          15.0682   16.1199   12.4659 H         1 ANP794      0.0000 
     34 H          13.8484   14.8688   10.9350 H         1 ANP794      0.0000 
     35 H          13.0751   17.7087   10.6234 H         1 ANP794      0.0000 
     36 H          11.1533   17.0459    9.3047 H         1 ANP794      0.0000 
     37 H          10.6488   14.5470   10.1616 H         1 ANP794      0.0000 
     38 H          10.5526   16.9966   13.0410 H         1 ANP794      0.0000 
     39 H           6.6865   15.8451    8.1151 H         1 ANP794      0.0000 
     40 H          14.8825   16.1495   10.6448 H         1 ANP794      0.0000 
     41 H          12.9938   15.0948    8.6403 H         1 ANP794      0.0000 
     42 H           5.0387   18.5959   10.7025 H         1 ANP794      0.0000 
@<TRIPOS>BOND
     1    2    1 ar   
     2    3    1 ar   
     3    4    1 ar   
     4    8    1 1    
     5    6    5 ar   
     6    7    5 ar   
     7    8    5 1    
     8   12    5 1    
     9   10    9 ar   
    10   11    9 ar   
    11   12    9 1    
    12   13    9 1    
    13   14   13 1    
    14   15   14 1    
    15   32   14 1    
    16   33   14 1    
    17   16   15 1    
    18   17   15 1    
    19   34   15 1    
    20   21   16 1    
    21   18   17 1    
    22   19   17 1    
    23   35   17 1    
    24   40   18 1    
    25   20   19 1    
    26   21   19 1    
    27   36   19 1    
    28   41   20 1    
    29   22   21 1    
    30   37   21 1    
    31   23   22 1    
    32   31   22 1    
    33   24   23 2    
    34   38   23 1    
    35   25   24 1    
    36   26   25 ar   
    37   31   25 ar   
    38   27   26 1    
    39   28   26 ar   
    40   42   27 1    
    41   29   28 ar   
    42   30   29 ar   
    43   39   29 1    
    44   31   30 ar   
@<TRIPOS>SUBSTRUCTURE
     1 ANP794      1 GROUP   
@<TRIPOS>SET

