#    Name: 2DQ3_1_CAVITY_N1_6.mol2
#    Modification time : Tue Mar 11 09:00:35 2014

@<TRIPOS>MOLECULE
2DQ3_1_CAVITY_N1_6.mol2
  148     0     7     0     0
SMALL
NO_CHARGES


@<TRIPOS>ATOM
      1 DU        -16.2351   46.3410    6.6889 H         7 CUB7        0.0000 
      2 O         -16.7922   47.5652    6.0248 O.2       2 ALA2        0.0000 
      3 DU        -16.1150   45.6707    5.3524 H         7 CUB7        0.0000 
      4 NZ        -16.6720   46.8949    4.6883 N.2       4 LYS4        0.0000 
      5 NZ        -17.2291   48.1191    4.0243 N.2       4 LYS4        0.0000 
      6 DU        -15.9948   45.0004    4.0159 H         7 CUB7        0.0000 
      7 NZ        -16.5519   46.2246    3.3518 N.2       4 LYS4        0.0000 
      8 OG        -15.8747   44.3300    2.6794 O.2       1 SER1        0.0000 
      9 O         -16.4318   45.5542    2.0153 O.2       2 ALA2        0.0000 
     10 O         -17.8193   45.0047    2.1662 O.2       2 ALA2        0.0000 
     11 NZ        -12.4329   50.0005   10.2458 N.2       4 LYS4        0.0000 
     12 DU        -12.9900   51.2247    9.5817 H         7 CUB7        0.0000 
     13 CA        -13.5471   52.4489    8.9176 C.3       6 GLY6        0.0000 
     14 DU        -12.3128   49.3302    8.9093 H         7 CUB7        0.0000 
     15 O         -12.8699   50.5544    8.2452 O.2       2 ALA2        0.0000 
     16 O         -13.4269   51.7786    7.5811 O.2       2 ALA2        0.0000 
     17 O         -12.1927   48.6599    7.5728 O.2       2 ALA2        0.0000 
     18 O         -12.7497   49.8841    6.9087 O.2       2 ALA2        0.0000 
     19 OD1       -13.3068   51.1083    6.2446 O.3       3 ASP3        0.0000 
     20 DU        -12.0725   47.9896    6.2363 H         7 CUB7        0.0000 
     21 O         -12.6296   49.2138    5.5722 O.2       2 ALA2        0.0000 
     22 N         -10.2812   43.6466    6.8920 N.2       2 ALA2        0.0000 
     23 DU        -10.8383   44.8708    6.2279 H         7 CUB7        0.0000 
     24 DU        -11.3953   46.0950    5.5638 H         7 CUB7        0.0000 
     25 DU        -11.9524   47.3193    4.8998 H         7 CUB7        0.0000 
     26 O         -12.5094   48.5435    4.2357 O.2       2 ALA2        0.0000 
     27 O         -13.0665   49.7677    3.5716 O.2       2 ALA2        0.0000 
     28 CA        -10.1611   42.9763    5.5555 C.3       6 GLY6        0.0000 
     29 OG        -10.7181   44.2005    4.8914 O.2       1 SER1        0.0000 
     30 OG        -11.2752   45.4247    4.2273 O.2       1 SER1        0.0000 
     31 CA        -11.8322   46.6489    3.5633 C.3       6 GLY6        0.0000 
     32 CA        -12.3893   47.8732    2.8992 C.3       6 GLY6        0.0000 
     33 O         -12.9464   49.0974    2.2351 O.2       2 ALA2        0.0000 
     34 OG        -13.5034   50.3216    1.5710 O.2       1 SER1        0.0000 
     35 CA        -12.2692   47.2028    1.5627 C.3       6 GLY6        0.0000 
     36 N         -12.8262   48.4271    0.8986 N.2       2 ALA2        0.0000 
     37 NZ        -13.3833   49.6513    0.2345 N.2       4 LYS4        0.0000 
     38 N         -12.7061   47.7567   -0.4379 N.2       2 ALA2        0.0000 
     39 NZ        -14.3775   50.6752    9.7326 N.2       4 LYS4        0.0000 
     40 DU        -13.1433   47.5565    9.7242 H         7 CUB7        0.0000 
     41 DU        -14.2574   50.0049    8.3961 H         7 CUB7        0.0000 
     42 O         -14.8145   51.2291    7.7320 O.2       2 ALA2        0.0000 
     43 CA        -15.3715   52.4533    7.0679 C.3       6 GLY6        0.0000 
     44 DU        -13.5802   48.1104    7.7237 H         7 CUB7        0.0000 
     45 DU        -14.1373   49.3346    7.0596 H         7 CUB7        0.0000 
     46 O         -14.6943   50.5588    6.3955 O.2       2 ALA2        0.0000 
     47 CA        -15.2514   51.7830    5.7314 C.3       6 GLY6        0.0000 
     48 CA        -12.3459   44.9916    7.7153 C.3       6 GLY6        0.0000 
     49 DU        -12.9030   46.2158    7.0512 H         7 CUB7        0.0000 
     50 DU        -14.0171   48.6643    5.7231 H         7 CUB7        0.0000 
     51 O         -14.5742   49.8885    5.0590 O.2       2 ALA2        0.0000 
     52 CA        -15.1312   51.1127    4.3949 C.3       6 GLY6        0.0000 
     53 CA        -12.2258   44.3213    6.3788 C.3       6 GLY6        0.0000 
     54 DU        -12.7828   45.5455    5.7147 H         7 CUB7        0.0000 
     55 DU        -13.8970   47.9939    4.3866 H         7 CUB7        0.0000 
     56 NZ        -14.4540   49.2182    3.7225 N.2       4 LYS4        0.0000 
     57 CA        -15.0111   50.4424    3.0584 C.3       6 GLY6        0.0000 
     58 N         -12.1056   43.6510    5.0423 N.2       2 ALA2        0.0000 
     59 OG        -12.6627   44.8752    4.3782 O.2       1 SER1        0.0000 
     60 DU        -13.2198   46.0994    3.7141 H         7 CUB7        0.0000 
     61 DU        -13.7768   47.3236    3.0501 H         7 CUB7        0.0000 
     62 NZ        -14.3339   48.5478    2.3860 N.2       4 LYS4        0.0000 
     63 OG        -11.9855   42.9807    3.7058 O.2       1 SER1        0.0000 
     64 OG        -12.5426   44.2049    3.0417 O.2       1 SER1        0.0000 
     65 OG        -13.0996   45.4291    2.3776 O.2       1 SER1        0.0000 
     66 N         -13.6567   46.6533    1.7136 N.2       2 ALA2        0.0000 
     67 N         -14.2137   47.8775    1.0495 N.2       2 ALA2        0.0000 
     68 NZ         -7.3197   52.7525    7.6417 N.2       4 LYS4        0.0000 
     69 O          -6.0855   49.6338    7.6333 O.2       2 ALA2        0.0000 
     70 O          -6.6425   50.8580    6.9692 O.2       2 ALA2        0.0000 
     71 O          -7.1996   52.0822    6.3052 O.2       2 ALA2        0.0000 
     72 O          -7.7566   53.3064    5.6411 O.2       2 ALA2        0.0000 
     73 NZ         -6.5224   50.1877    5.6327 N.2       4 LYS4        0.0000 
     74 O          -7.0794   51.4119    4.9687 O.2       2 ALA2        0.0000 
     75 CZ         -7.6365   52.6361    4.3046 C.ar      5 PHE5        0.0000 
     76 O          -6.1288   52.5153    2.8172 O.2       2 ALA2        0.0000 
     77 O          -5.4516   50.6208    2.1448 O.2       2 ALA2        0.0000 
     78 CA         -6.0087   51.8450    1.4807 C.3       6 GLY6        0.0000 
     79 O          -6.9593   50.7416    3.6322 O.2       2 ALA2        0.0000 
     80 CZ         -7.5164   51.9658    2.9681 C.ar      5 PHE5        0.0000 
     81 NZ         -6.2821   48.8471    2.9597 N.2       4 LYS4        0.0000 
     82 NZ         -6.8392   50.0713    2.2956 N.2       4 LYS4        0.0000 
     83 CA         -7.3962   51.2955    1.6316 C.3       6 GLY6        0.0000 
     84 O          -6.7190   49.4010    0.9591 O.2       2 ALA2        0.0000 
     85 DU        -15.0879   48.2311    9.2110 H         7 CUB7        0.0000 
     86 O         -15.6449   49.4554    8.5470 O.2       2 ALA2        0.0000 
     87 O         -16.2020   50.6796    7.8829 O.2       2 ALA2        0.0000 
     88 DU        -14.4107   46.3366    8.5386 H         7 CUB7        0.0000 
     89 DU        -14.9677   47.5608    7.8745 H         7 CUB7        0.0000 
     90 O         -15.5248   48.7850    7.2105 O.2       2 ALA2        0.0000 
     91 CA        -14.2905   45.6663    7.2021 C.3       6 GLY6        0.0000 
     92 DU        -14.8476   46.8905    6.5380 H         7 CUB7        0.0000 
     93 DU        -15.4046   48.1147    5.8740 H         7 CUB7        0.0000 
     94 O         -15.9617   49.3389    5.2099 O.2       2 ALA2        0.0000 
     95 O         -16.5188   50.5631    4.5458 O.2       2 ALA2        0.0000 
     96 CA        -14.1704   44.9960    5.8656 C.3       6 GLY6        0.0000 
     97 DU        -14.7274   46.2202    5.2015 H         7 CUB7        0.0000 
     98 DU        -15.2845   47.4444    4.5375 H         7 CUB7        0.0000 
     99 NZ        -15.8416   48.6686    3.8734 N.2       4 LYS4        0.0000 
    100 N         -14.0502   44.3257    4.5291 N.2       2 ALA2        0.0000 
    101 DU        -14.6073   45.5499    3.8650 H         7 CUB7        0.0000 
    102 NZ        -15.1644   46.7741    3.2010 N.2       4 LYS4        0.0000 
    103 OG        -13.9301   43.6554    3.1926 O.2       1 SER1        0.0000 
    104 OG        -14.4872   44.8796    2.5285 O.2       1 SER1        0.0000 
    105 N         -15.0442   46.1038    1.8645 N.2       2 ALA2        0.0000 
    106 NZ         -9.7780   51.7699   11.2805 N.2       4 LYS4        0.0000 
    107 O          -9.1008   49.8754   10.6081 O.2       2 ALA2        0.0000 
    108 NZ         -9.6579   51.0996    9.9440 N.2       4 LYS4        0.0000 
    109 NZ        -10.2149   52.3238    9.2799 N.2       4 LYS4        0.0000 
    110 O          -9.5377   50.4293    8.6075 O.2       2 ALA2        0.0000 
    111 NZ         -9.1773   48.4183    4.5980 N.2       4 LYS4        0.0000 
    112 O          -9.7344   49.6425    3.9339 O.2       2 ALA2        0.0000 
    113 O         -10.2914   50.8667    3.2699 O.2       2 ALA2        0.0000 
    114 NZ         -9.0572   47.7480    3.2615 N.2       4 LYS4        0.0000 
    115 CA         -9.6142   48.9722    2.5974 C.3       6 GLY6        0.0000 
    116 OG        -10.1713   50.1964    1.9333 O.2       1 SER1        0.0000 
    117 CA        -10.7283   51.4206    1.2693 C.3       6 GLY6        0.0000 
    118 CA         -9.4941   48.3019    1.2609 C.3       6 GLY6        0.0000 
    119 O          -6.3691   53.8560    5.4902 O.2       2 ALA2        0.0000 
    120 O          -6.2490   53.1857    4.1537 O.2       2 ALA2        0.0000 
    121 DU        -11.0454   50.5501   10.0949 H         7 CUB7        0.0000 
    122 O         -11.6025   51.7743    9.4308 O.2       2 ALA2        0.0000 
    123 O         -10.6850   48.5391    6.0854 O.2       2 ALA2        0.0000 
    124 NZ         -8.8937   44.1962    6.7411 N.2       4 LYS4        0.0000 
    125 NZ        -10.5648   47.8688    4.7489 N.2       4 LYS4        0.0000 
    126 O         -11.1219   49.0930    4.0848 O.2       2 ALA2        0.0000 
    127 OG         -9.3306   44.7501    4.7405 O.2       1 SER1        0.0000 
    128 CA        -10.4447   47.1985    3.4124 C.3       6 GLY6        0.0000 
    129 CA        -11.0018   48.4227    2.7483 C.3       6 GLY6        0.0000 
    130 O         -11.5588   49.6469    2.0842 O.2       2 ALA2        0.0000 
    131 CA        -12.1159   50.8711    1.4202 C.3       6 GLY6        0.0000 
    132 OG        -11.4387   48.9766    0.7477 O.2       1 SER1        0.0000 
    133 OG        -11.9957   50.2008    0.0837 O.2       1 SER1        0.0000 
    134 O          -8.1502   50.9788    8.4566 O.2       2 ALA2        0.0000 
    135 O          -8.7073   52.2030    7.7925 O.2       2 ALA2        0.0000 
    136 O          -8.0301   50.3085    7.1201 O.2       2 ALA2        0.0000 
    137 NZ         -7.9099   49.6382    5.7836 N.2       4 LYS4        0.0000 
    138 O          -8.4670   50.8624    5.1195 O.2       2 ALA2        0.0000 
    139 O          -9.0240   52.0866    4.4555 O.2       2 ALA2        0.0000 
    140 NZ         -7.7898   48.9679    4.4471 N.2       4 LYS4        0.0000 
    141 NZ         -8.3468   50.1921    3.7830 N.2       4 LYS4        0.0000 
    142 O          -8.9039   51.4163    3.1190 O.2       2 ALA2        0.0000 
    143 CZ         -9.4610   52.6405    2.4549 C.ar      5 PHE5        0.0000 
    144 NZ         -7.6696   48.2975    3.1106 N.2       4 LYS4        0.0000 
    145 OG         -8.2267   49.5217    2.4465 O.2       1 SER1        0.0000 
    146 OG         -8.7838   50.7460    1.7825 O.2       1 SER1        0.0000 
    147 NZ         -7.5495   47.6272    1.7741 N.2       4 LYS4        0.0000 
    148 OG         -8.1066   48.8514    1.1100 O.2       1 SER1        0.0000 
@<TRIPOS>BOND
@<TRIPOS>SUBSTRUCTURE
     1 SER1        8 GROUP   
     2 ALA2        2 GROUP   
     3 ASP3       19 GROUP   
     4 LYS4        4 GROUP   
     5 PHE5       75 GROUP   
     6 GLY6       13 GROUP   
     7 CUB7        1 GROUP   
@<TRIPOS>SET

