#    Name: 2dq3_SSA_1_INTS_M
#    Modification time : Tue Mar 25 10:13:03 2014

@<TRIPOS>MOLECULE
2dq3_SSA_1_INTS_M
   74     0    12     0     0
SMALL
NO_CHARGES


@<TRIPOS>ATOM
      1 OD1       -16.0300   49.3915    0.8120 O.co2     3 ASC3        0.0000 
      2 OD1       -14.8500   49.8050    0.2810 O.co2    11 ASL3        0.0000 
      3 OD1       -17.2100   48.9780    1.3430 O.co2     7 ASP3        0.0000 
      4 OD1       -14.0690   50.1670   -1.4525 O.co2     3 ASC3        0.0000 
      5 OD1       -13.2880   50.5290   -3.1860 O.co2     7 ASP3        0.0000 
      6 OD1       -15.0145   50.0995   -0.9375 O.co2     3 ASC3        0.0000 
      7 OD1       -15.1790   50.3940   -2.1560 O.co2     7 ASP3        0.0000 
      8 O         -14.7825   51.3875    0.2925 O.2       1 ALC1        0.0000 
      9 O         -14.8500   49.8050    0.2810 O.2       9 ALL1        0.0000 
     10 O         -14.7150   52.9700    0.3040 O.2       5 ALP1        0.0000 
     11 O         -16.0300   49.3915    0.8120 O.2       1 ALC1        0.0000 
     12 O         -17.2100   48.9780    1.3430 O.2       5 ALP1        0.0000 
     13 O         -15.0145   50.0995   -0.9375 O.2       1 ALC1        0.0000 
     14 O         -15.1790   50.3940   -2.1560 O.2       5 ALP1        0.0000 
     15 CA        -12.3730   51.0110   -0.6435 C.3       4 GLC5        0.0000 
     16 CA        -12.8140   48.8500   -0.6420 C.3      12 GLL5        0.0000 
     17 CA        -11.9320   53.1720   -0.6450 C.3       8 GLP5        0.0000 
     18 CA        -12.6790   47.8135   -2.2070 C.3       4 GLC5        0.0000 
     19 CA        -12.5440   46.7770   -3.7720 C.3       8 GLP5        0.0000 
     20 CA        -11.3455   49.1540   -2.1775 C.3       4 GLC5        0.0000 
     21 CA         -9.8770   49.4580   -3.7130 C.3       8 GLP5        0.0000 
     22 N         -10.8265   49.7480   -1.1000 N.am      2 SEC2        0.0000 
     23 N         -12.1350   50.0640   -0.8930 N.am     10 SEL2        0.0000 
     24 N          -9.5180   49.4320   -1.3070 N.am      6 SEP2        0.0000 
     25 O         -12.7115   50.2965   -2.0395 O.2       1 ALC1        0.0000 
     26 O         -12.1350   50.0640   -0.8930 O.2       9 ALL1        0.0000 
     27 O         -13.2880   50.5290   -3.1860 O.2       5 ALP1        0.0000 
     28 N         -13.8465   51.8030    1.2375 N.am      2 SEC2        0.0000 
     29 N         -12.9780   50.6360    2.1710 N.am     10 SEL2        0.0000 
     30 N         -14.7150   52.9700    0.3040 N.am      6 SEP2        0.0000 
     31 N         -12.5450   51.5475    3.1660 N.am      2 SEC2        0.0000 
     32 N         -12.1120   52.4590    4.1610 N.am      6 SEP2        0.0000 
     33 N         -11.9540   50.9565    4.3110 N.am      2 SEC2        0.0000 
     34 N         -11.7960   49.4540    4.4610 N.am     10 SEL2        0.0000 
     35 N         -11.3730   50.7415    5.2740 N.am      2 SEC2        0.0000 
     36 N         -10.9500   52.0290    6.0870 N.am      6 SEP2        0.0000 
     37 N         -11.1530   51.3945    3.4775 N.am      2 SEC2        0.0000 
     38 N         -10.1940   50.3300    2.7940 N.am     10 SEL2        0.0000 
     39 CA         -7.0745   52.0075    0.4460 C.3       4 GLC5        0.0000 
     40 CA         -8.1030   50.6460    1.6350 C.3      12 GLL5        0.0000 
     41 CA         -6.0460   53.3690   -0.7430 C.3       8 GLP5        0.0000 
     42 CA         -7.7010   53.7150    2.4235 C.3       4 GLC5        0.0000 
     43 CA         -6.6690   52.1230    2.7330 C.3      12 GLL5        0.0000 
     44 CA         -8.7330   55.3070    2.1140 C.3       8 GLP5        0.0000 
     45 CA         -4.9815   55.4130    7.3785 C.3       4 GLC5        0.0000 
     46 CA         -6.6400   55.2270    6.4670 C.3      12 GLL5        0.0000 
     47 CA         -3.3230   55.5990    8.2900 C.3       8 GLP5        0.0000 
     48 O          -8.0965   55.1730    8.9860 O.2       1 ALC1        0.0000 
     49 O          -7.1250   55.5700    7.6660 O.2       9 ALL1        0.0000 
     50 O          -9.0680   54.7760   10.3060 O.2       5 ALP1        0.0000 
     51 O          -7.1615   56.9010    7.9440 O.2       1 ALC1        0.0000 
     52 O          -7.1980   58.2320    8.2220 O.2       5 ALP1        0.0000 
     53 N          -5.1995   56.8505    7.0005 N.am      2 SEC2        0.0000 
     54 N          -5.7600   56.0710    5.8570 N.am     10 SEL2        0.0000 
     55 N          -4.6390   57.6300    8.1440 N.am      6 SEP2        0.0000 
     56 CA         -4.3030   55.6660    6.4695 C.3       4 GLC5        0.0000 
     57 CA         -5.2830   55.7330    4.6490 C.3      12 GLL5        0.0000 
     58 CA         -5.9955   57.0810    3.7455 C.3       4 GLC5        0.0000 
     59 CA         -6.7080   58.4290    2.8420 C.3       8 GLP5        0.0000 
     60 CA         -3.9235   54.2745    3.7545 C.3       4 GLC5        0.0000 
     61 CA         -2.5640   52.8160    2.8600 C.3       8 GLP5        0.0000 
     62 CA         -4.4985   53.3240    3.6980 C.3       4 GLC5        0.0000 
     63 CA         -6.4330   53.8320    4.5360 C.3      12 GLL5        0.0000 
     64 CA         -9.6157   51.8507    0.4435 C.3       4 GLC5        0.0000 
     65 CA        -10.4080   53.2410   -0.6940 C.3       8 GLP5        0.0000 
     66 CA         -8.8472   50.0343   -0.4925 C.3       4 GLC5        0.0000 
     67 CA         -9.5440   50.2750    1.5270 C.3      12 GLL5        0.0000 
     68 CA         -8.8710   49.6080   -2.5660 C.3       8 GLP5        0.0000 
     69 CA         -5.8308   48.3640    2.9085 C.3       4 GLC5        0.0000 
     70 CA         -7.2720   49.8600    2.6200 C.3      12 GLL5        0.0000 
     71 CA         -5.0120   46.4310    3.1770 C.3       8 GLP5        0.0000 
     72 CA         -6.1970   52.3987    0.9768 C.3       4 GLC5        0.0000 
     73 CA         -6.0270   50.7340    2.6600 C.3      12 GLL5        0.0000 
     74 CA         -4.4560   52.1223    2.7782 C.3       4 GLC5        0.0000 
@<TRIPOS>BOND
@<TRIPOS>SUBSTRUCTURE
     1 ALC1        8 GROUP        1 X    ALC  0     ROOT ALC X 1
     2 SEC2       22 GROUP        1 X    SEC  0     **** SEC X 2
     3 ASC3        1 GROUP        1 X    ASC  0     **** ASC X 3
     4 GLC5       15 GROUP        1 X    GLC  0     **** GLC X 6
     5 ALP1       10 GROUP        1 Y    ALP  0     ROOT ALP Y 8
     6 SEP2       24 GROUP        1 Y    SEP  0     **** SEP Y 9
     7 ASP3        3 GROUP        1 Y    ASP  0     **** ASP Y 10
     8 GLP5       17 GROUP        1 Y    GLP  0     **** GLP Y 13
     9 ALL1        9 GROUP        1 Z    ALL  0     ROOT ALL Z 15
    10 SEL2       23 GROUP        1 Z    SEL  0     **** SEL Z 16
    11 ASL3        2 GROUP        1 Z    ASL  0     **** ASL Z 17
    12 GLL5       16 GROUP        1 Z    GLL  0     **** GLL Z 20
@<TRIPOS>SET

