#    Name: 2dq3_SSA_1_ligand
#    Modification time : Tue Mar 25 10:13:04 2014

@<TRIPOS>MOLECULE
2dq3_SSA_1_ligand
   49    51     1     0     0
SMALL
NO_CHARGES


@<TRIPOS>ATOM
      1 N10       -14.8500   49.8050    0.2810 N.4       1 SSA1001     0.0000 
      2 CA        -13.6800   48.9670    0.5620 C.3       1 SSA1001     0.0000 
      3 CB        -12.8140   48.8500   -0.6420 C.3       1 SSA1001     0.0000 
      4 OG        -12.1350   50.0640   -0.8930 O.3       1 SSA1001     0.0000 
      5 C9        -12.8170   49.4970    1.7050 C.2       1 SSA1001     0.0000 
      6 O9        -12.9780   50.6360    2.1710 O.2       1 SSA1001     0.0000 
      7 N8        -11.9200   48.6310    2.2020 N.am      1 SSA1001     0.0000 
      8 S1        -10.9140   49.0640    3.3680 S.o2      1 SSA1001     0.0000 
      9 O1S       -11.7960   49.4540    4.4610 O.2       1 SSA1001     0.0000 
     10 O2S        -9.9650   47.9540    3.5250 O.2       1 SSA1001     0.0000 
     11 O5'       -10.1940   50.3300    2.7940 O.3       1 SSA1001     0.0000 
     12 C5'        -9.5440   50.2750    1.5270 C.3       1 SSA1001     0.0000 
     13 C4'        -8.1030   50.6460    1.6350 C.3       1 SSA1001     0.0000 
     14 O4'        -7.9370   51.9990    2.0950 O.3       1 SSA1001     0.0000 
     15 C3'        -7.2720   49.8600    2.6200 C.3       1 SSA1001     0.0000 
     16 O3'        -6.9720   48.5980    2.0650 O.3       1 SSA1001     0.0000 
     17 C2'        -6.0270   50.7340    2.6600 C.3       1 SSA1001     0.0000 
     18 O2'        -5.2310   50.6450    1.4860 O.3       1 SSA1001     0.0000 
     19 C1'        -6.6690   52.1230    2.7330 C.3       1 SSA1001     0.0000 
     20 N9         -6.9500   52.6550    4.0670 N.pl3     1 SSA1001     0.0000 
     21 C8         -7.7900   52.1940    5.0570 C.2       1 SSA1001     0.0000 
     22 N7         -7.8540   52.9850    6.1060 N.2       1 SSA1001     0.0000 
     23 C5         -7.0040   54.0310    5.7840 C.ar      1 SSA1001     0.0000 
     24 C6         -6.6400   55.2270    6.4670 C.ar      1 SSA1001     0.0000 
     25 N6         -7.1250   55.5700    7.6660 N.pl3     1 SSA1001     0.0000 
     26 N1         -5.7600   56.0710    5.8570 N.ar      1 SSA1001     0.0000 
     27 C2         -5.2830   55.7330    4.6490 C.ar      1 SSA1001     0.0000 
     28 N3         -5.5560   54.6420    3.9060 N.ar      1 SSA1001     0.0000 
     29 C4         -6.4330   53.8320    4.5360 C.ar      1 SSA1001     0.0000 
     30 H         -14.0018   47.9581    0.8402 H         1 SSA1001     0.0000 
     31 H         -13.4482   48.5582   -1.5005 H         1 SSA1001     0.0000 
     32 H         -12.1037   48.0170   -0.4809 H         1 SSA1001     0.0000 
     33 H         -11.7912   47.6672    1.9095 H         1 SSA1001     0.0000 
     34 H         -10.0271   50.9586    0.8020 H         1 SSA1001     0.0000 
     35 H          -9.6113   49.2601    1.0890 H         1 SSA1001     0.0000 
     36 H          -7.6166   50.5585    0.6591 H         1 SSA1001     0.0000 
     37 H          -7.7287   49.8644    3.5410 H         1 SSA1001     0.0000 
     38 H          -5.5207   50.5692    3.5628 H         1 SSA1001     0.0000 
     39 H          -6.0594   52.8120    2.1679 H         1 SSA1001     0.0000 
     40 H          -8.2907   51.3329    4.9562 H         1 SSA1001     0.0000 
     41 H          -7.1859   56.5507    7.8519 H         1 SSA1001     0.0000 
     42 H          -7.3830   54.8149    8.2688 H         1 SSA1001     0.0000 
     43 H          -4.5679   56.4458    4.1998 H         1 SSA1001     0.0000 
     44 H         -15.1235   49.7509   -0.6794 H         1 SSA1001     0.0000 
     45 H         -15.6420   49.5322    0.8271 H         1 SSA1001     0.0000 
     46 H         -14.6735   50.7686    0.4817 H         1 SSA1001     0.0000 
     47 H         -12.0402   50.1066   -1.8876 H         1 SSA1001     0.0000 
     48 H          -6.0354   48.6812    1.7247 H         1 SSA1001     0.0000 
     49 H          -5.7331   51.1626    0.7931 H         1 SSA1001     0.0000 
@<TRIPOS>BOND
     1    2    1 1    
     2   44    1 1    
     3   45    1 1    
     4   46    1 1    
     5    3    2 1    
     6    5    2 1    
     7   30    2 1    
     8    4    3 1    
     9   31    3 1    
    10   32    3 1    
    11   47    4 1    
    12    6    5 2    
    13    7    5 am   
    14    8    7 1    
    15   33    7 1    
    16    9    8 2    
    17   10    8 2    
    18   11    8 1    
    19   12   11 1    
    20   13   12 1    
    21   34   12 1    
    22   35   12 1    
    23   14   13 1    
    24   15   13 1    
    25   36   13 1    
    26   19   14 1    
    27   16   15 1    
    28   17   15 1    
    29   37   15 1    
    30   48   16 1    
    31   18   17 1    
    32   19   17 1    
    33   38   17 1    
    34   49   18 1    
    35   20   19 1    
    36   39   19 1    
    37   21   20 1    
    38   29   20 1    
    39   22   21 2    
    40   40   21 1    
    41   23   22 1    
    42   24   23 ar   
    43   29   23 ar   
    44   25   24 1    
    45   26   24 ar   
    46   41   25 1    
    47   42   25 1    
    48   27   26 ar   
    49   28   27 ar   
    50   43   27 1    
    51   29   28 ar   
@<TRIPOS>SUBSTRUCTURE
     1 SSA1001     1 GROUP   
@<TRIPOS>SET

