#    Name: 2fxv_5GP_2_INTS_M
#    Modification time : Tue Mar 25 13:13:37 2014

@<TRIPOS>MOLECULE
2fxv_5GP_2_INTS_M
   46     0     9     0     0
SMALL
NO_CHARGES


@<TRIPOS>ATOM
      1 N          27.3445   25.6320   28.6440 N.am      2 SEC2        0.0000 
      2 N          26.6490   25.1390   29.5570 N.am      8 SEL2        0.0000 
      3 N          28.0400   26.1250   27.7310 N.am      5 SEP2        0.0000 
      4 N          27.0085   24.6875   33.1200 N.am      2 SEC2        0.0000 
      5 N          27.0350   24.0340   31.7870 N.am      8 SEL2        0.0000 
      6 N          26.9820   25.3410   34.4530 N.am      5 SEP2        0.0000 
      7 N          28.1445   25.1525   31.1170 N.am      2 SEC2        0.0000 
      8 N          29.2540   26.2710   30.4470 N.am      5 SEP2        0.0000 
      9 N          24.9975   26.3990   32.6805 N.am      2 SEC2        0.0000 
     10 N          25.8050   26.2010   31.5520 N.am      8 SEL2        0.0000 
     11 N          24.1900   26.5970   33.8090 N.am      5 SEP2        0.0000 
     12 N          26.9960   26.6615   32.1745 N.am      2 SEC2        0.0000 
     13 N          28.1870   27.1220   32.7970 N.am      5 SEP2        0.0000 
     14 CA         24.3725   22.7450   31.0765 C.3       3 GLC5        0.0000 
     15 CA         23.6370   24.6480   30.1600 C.3       9 GLL5        0.0000 
     16 CA         25.1080   20.8420   31.9930 C.3       6 GLP5        0.0000 
     17 CA         21.5915   25.1990   30.8190 C.3       3 GLC5        0.0000 
     18 CA         19.5460   25.7500   31.4780 C.3       6 GLP5        0.0000 
     19 CA         24.0235   24.4450   32.3225 C.3       3 GLC5        0.0000 
     20 CA         24.4100   24.2420   34.4850 C.3       6 GLP5        0.0000 
     21 O          22.2130   25.9775   26.7705 O.2       1 ALC1        0.0000 
     22 O          22.0230   24.5210   26.9110 O.2       7 ALL1        0.0000 
     23 O          22.4030   27.4340   26.6300 O.2       4 ALP1        0.0000 
     24 CA         21.0780   20.4615   30.5000 C.3       3 GLC5        0.0000 
     25 CA         21.4280   22.2780   29.6050 C.3       9 GLL5        0.0000 
     26 CA         20.7280   18.6450   31.3950 C.3       6 GLP5        0.0000 
     27 N          21.4335   22.5625   34.6650 N.am      2 SEC2        0.0000 
     28 N          21.2380   22.5160   33.3440 N.am      8 SEL2        0.0000 
     29 N          21.6290   22.6090   35.9860 N.am      5 SEP2        0.0000 
     30 CA         20.4645   23.0050   34.6290 C.3       3 GLC5        0.0000 
     31 CA         19.9750   22.1150   32.9970 C.3       9 GLL5        0.0000 
     32 CA         20.9540   23.8950   36.2610 C.3       6 GLP5        0.0000 
     33 N          17.8585   21.1215   35.7660 N.am      2 SEC2        0.0000 
     34 N          18.7680   21.8960   34.9280 N.am      8 SEL2        0.0000 
     35 N          16.9490   20.3470   36.6040 N.am      5 SEP2        0.0000 
     36 O          16.5560   21.0920   33.6315 O.2       1 ALC1        0.0000 
     37 O          17.6320   21.4210   32.9910 O.2       7 ALL1        0.0000 
     38 O          15.4800   20.7630   34.2720 O.2       4 ALP1        0.0000 
     39 O          15.5655   21.6885   30.1370 O.2       1 ALC1        0.0000 
     40 O          16.4870   20.9330   30.9450 O.2       7 ALL1        0.0000 
     41 O          14.6440   22.4440   29.3290 O.2       4 ALP1        0.0000 
     42 CA         20.4550   24.4006   30.2719 C.3       3 GLC5        0.0000 
     43 CA         20.7930   23.2930   28.6830 C.3       9 GLL5        0.0000 
     44 CA         20.3418   20.3517   31.8415 C.3       3 GLC5        0.0000 
     45 CA         19.9360   22.0020   31.5790 C.3       9 GLL5        0.0000 
     46 CA         19.7508   23.9042   31.8830 C.3       3 GLC5        0.0000 
@<TRIPOS>BOND
@<TRIPOS>SUBSTRUCTURE
     1 ALC1       21 GROUP        1 X    ALC  0     ROOT ALC X 1
     2 SEC2        1 GROUP        1 X    SEC  0     **** SEC X 2
     3 GLC5       14 GROUP        1 X    GLC  0     **** GLC X 6
     4 ALP1       23 GROUP        1 Y    ALP  0     ROOT ALP Y 8
     5 SEP2        3 GROUP        1 Y    SEP  0     **** SEP Y 9
     6 GLP5       16 GROUP        1 Y    GLP  0     **** GLP Y 13
     7 ALL1       22 GROUP        1 Z    ALL  0     ROOT ALL Z 15
     8 SEL2        2 GROUP        1 Z    SEL  0     **** SEL Z 16
     9 GLL5       15 GROUP        1 Z    GLL  0     **** GLL Z 20
@<TRIPOS>SET

