#    Name: 2fxv_5GP_2_ligand
#    Modification time : Tue Mar 25 13:13:37 2014

@<TRIPOS>MOLECULE
2fxv_5GP_2_ligand
   36    38     1     0     0
SMALL
NO_CHARGES


@<TRIPOS>ATOM
      1 P          26.0960   24.8690   31.0000 P.3       1 5GP201      0.0000 
      2 O1P        26.6490   25.1390   29.5570 O.co2     1 5GP201      0.0000 
      3 O2P        27.0350   24.0340   31.7870 O.co2     1 5GP201      0.0000 
      4 O3P        25.8050   26.2010   31.5520 O.co2     1 5GP201      0.0000 
      5 O5'        24.7590   24.1290   30.8270 O.3       1 5GP201      0.0000 
      6 C5'        23.6370   24.6480   30.1600 C.3       1 5GP201      0.0000 
      7 C4'        23.1290   23.8470   29.0060 C.3       1 5GP201      0.0000 
      8 O4'        22.8050   22.5990   29.6390 O.3       1 5GP201      0.0000 
      9 C3'        21.8070   24.3560   28.3700 C.3       1 5GP201      0.0000 
     10 O3'        22.0230   24.5210   26.9110 O.3       1 5GP201      0.0000 
     11 C2'        20.7930   23.2930   28.6830 C.3       1 5GP201      0.0000 
     12 O2'        20.2630   22.6070   27.5550 O.3       1 5GP201      0.0000 
     13 C1'        21.4280   22.2780   29.6050 C.3       1 5GP201      0.0000 
     14 N9         21.1720   22.3260   31.0920 N.pl3     1 5GP201      0.0000 
     15 C8         21.8810   22.6210   32.2240 C.2       1 5GP201      0.0000 
     16 N7         21.2380   22.5160   33.3440 N.2       1 5GP201      0.0000 
     17 C5         19.9750   22.1150   32.9970 C.2       1 5GP201      0.0000 
     18 C6         18.8220   21.8240   33.6800 C.2       1 5GP201      0.0000 
     19 O6         18.7680   21.8960   34.9280 O.2       1 5GP201      0.0000 
     20 N1         17.6320   21.4210   32.9910 N.am      1 5GP201      0.0000 
     21 C2         17.5910   21.3060   31.5750 C.2       1 5GP201      0.0000 
     22 N2         16.4870   20.9330   30.9450 N.pl3     1 5GP201      0.0000 
     23 N3         18.7530   21.5970   30.8460 N.2       1 5GP201      0.0000 
     24 C4         19.9360   22.0020   31.5790 C.2       1 5GP201      0.0000 
     25 H          23.8408   25.6929   29.7820 H         1 5GP201      0.0000 
     26 H          22.7749   24.7937   30.8754 H         1 5GP201      0.0000 
     27 H          23.8627   23.7135   28.2774 H         1 5GP201      0.0000 
     28 H          21.5506   25.2628   28.8408 H         1 5GP201      0.0000 
     29 H          19.9802   23.7614   29.2633 H         1 5GP201      0.0000 
     30 H          21.3126   21.2891   29.2508 H         1 5GP201      0.0000 
     31 H          22.8610   22.9049   32.1526 H         1 5GP201      0.0000 
     32 H          16.7880   21.2105   33.5399 H         1 5GP201      0.0000 
     33 H          16.3885   19.9529   30.7727 H         1 5GP201      0.0000 
     34 H          15.8521   21.6653   30.6988 H         1 5GP201      0.0000 
     35 H          22.1561   25.5032   26.7786 H         1 5GP201      0.0000 
     36 H          20.5678   23.1366   26.7634 H         1 5GP201      0.0000 
@<TRIPOS>BOND
     1    2    1 ar   
     2    3    1 ar   
     3    4    1 ar   
     4    5    1 1    
     5    6    5 1    
     6    7    6 1    
     7   25    6 1    
     8   26    6 1    
     9    8    7 1    
    10    9    7 1    
    11   27    7 1    
    12   13    8 1    
    13   10    9 1    
    14   11    9 1    
    15   28    9 1    
    16   35   10 1    
    17   12   11 1    
    18   13   11 1    
    19   29   11 1    
    20   36   12 1    
    21   14   13 1    
    22   30   13 1    
    23   15   14 1    
    24   24   14 1    
    25   16   15 2    
    26   31   15 1    
    27   17   16 1    
    28   18   17 1    
    29   24   17 2    
    30   19   18 2    
    31   20   18 am   
    32   21   20 1    
    33   32   20 1    
    34   22   21 1    
    35   23   21 2    
    36   33   22 1    
    37   34   22 1    
    38   24   23 1    
@<TRIPOS>SUBSTRUCTURE
     1 5GP201      1 GROUP   
@<TRIPOS>SET

