#    Name: 1vrp_ADP_2_INTS_M
#    Modification time : Tue Mar 25 08:12:54 2014

@<TRIPOS>MOLECULE
1vrp_ADP_2_INTS_M
   66     0    15     0     0
SMALL
NO_CHARGES


@<TRIPOS>ATOM
      1 N          23.5565   32.7475   47.3630 N.am      2 SEC2        0.0000 
      2 N          23.7060   33.7850   48.6240 N.am     12 SEL2        0.0000 
      3 N          23.4070   31.7100   46.1020 N.am      7 SEP2        0.0000 
      4 Zn         21.8460   34.0990   49.8900 Zn        4 ZIC7        0.0000 
      5 Zn         21.9240   32.7620   49.8940 Zn       14 ZIL7        0.0000 
      6 Zn         21.7680   35.4360   49.8860 Zn        9 ZIP7        0.0000 
      7 N          21.6870   31.3810   50.7840 N.am      2 SEC2        0.0000 
      8 N          21.9240   32.7620   49.8940 N.am     12 SEL2        0.0000 
      9 N          21.4500   30.0000   51.6740 N.am      7 SEP2        0.0000 
     10 NZ         23.7240   30.4105   50.1700 N.4       3 LYC4        0.0000 
     11 NZ         23.8720   31.4370   49.2020 N.4      13 LYL4        0.0000 
     12 NZ         22.4940   29.2000   51.8650 N.4       8 LYP4        0.0000 
     13 NZ         23.6395   31.5735   47.6520 N.4       3 LYC4        0.0000 
     14 NZ         22.7400   30.7970   45.4260 N.4       8 LYP4        0.0000 
     15 NZ         25.3060   31.1930   49.8945 N.4       3 LYC4        0.0000 
     16 NZ         27.2930   30.8200   49.3880 N.4       8 LYP4        0.0000 
     17 N          23.7240   30.4105   50.1700 N.am      2 SEC2        0.0000 
     18 N          23.8720   31.4370   49.2020 N.am     12 SEL2        0.0000 
     19 N          23.5760   29.3840   51.1380 N.am      7 SEP2        0.0000 
     20 N          23.6395   31.5735   47.6520 N.am      2 SEC2        0.0000 
     21 N          25.2315   31.2520   48.7415 N.am      2 SEC2        0.0000 
     22 N          26.5910   31.0670   48.2810 N.am      7 SEP2        0.0000 
     23 N          25.3060   31.1930   49.8945 N.am      2 SEC2        0.0000 
     24 N          26.7400   30.9490   50.5870 N.am      7 SEP2        0.0000 
     25 Zn         22.8565   35.4850   50.4760 Zn        4 ZIC7        0.0000 
     26 Zn         23.9450   35.5340   51.0660 Zn       14 ZIL7        0.0000 
     27 N          27.0985   34.3050   50.0815 N.am      2 SEC2        0.0000 
     28 N          26.2350   34.5840   51.3620 N.am     12 SEL2        0.0000 
     29 N          27.9620   34.0260   48.8010 N.am      7 SEP2        0.0000 
     30 N          25.5075   32.1080   50.7815 N.am      2 SEC2        0.0000 
     31 N          24.2750   33.2670   50.9760 N.am     12 SEL2        0.0000 
     32 CA         24.9935   32.1020   57.7640 C.3       5 GLC5        0.0000 
     33 CA         25.0420   32.5530   55.7520 C.3      15 GLL5        0.0000 
     34 CA         24.9450   31.6510   59.7760 C.3      10 GLP5        0.0000 
     35 CA         26.7890   33.8480   56.0605 C.3       5 GLC5        0.0000 
     36 CA         28.5360   35.1430   56.3690 C.3      10 GLP5        0.0000 
     37 O          27.3635   32.6815   56.7710 O.2       1 ALC1        0.0000 
     38 O          25.7710   32.5900   56.9750 O.2      11 ALL1        0.0000 
     39 O          28.9560   32.7730   56.5670 O.2       6 ALP1        0.0000 
     40 CA         23.6630   30.7095   57.1825 C.3       5 GLC5        0.0000 
     41 CA         24.2970   31.2650   55.4320 C.3      15 GLL5        0.0000 
     42 CA         23.0290   30.1540   58.9330 C.3      10 GLP5        0.0000 
     43 CA         27.1870   25.6220   56.7695 C.3       5 GLC5        0.0000 
     44 CA         26.8570   27.1040   55.1480 C.3      15 GLL5        0.0000 
     45 CA         27.5170   24.1400   58.3910 C.3      10 GLP5        0.0000 
     46 CA         25.8015   26.1090   54.0465 C.3       5 GLC5        0.0000 
     47 CA         24.7460   25.1140   52.9450 C.3      10 GLP5        0.0000 
     48 N          26.2620   25.3225   57.2080 N.am      2 SEC2        0.0000 
     49 N          26.4350   26.6420   56.3620 N.am     12 SEL2        0.0000 
     50 N          26.0890   24.0030   58.0540 N.am      7 SEP2        0.0000 
     51 CA         26.5535   25.7465   57.7610 C.3       5 GLC5        0.0000 
     52 CA         25.5900   27.3530   57.1310 C.3      15 GLL5        0.0000 
     53 CA         24.5985   27.3525   55.1135 C.3       5 GLC5        0.0000 
     54 CA         23.6070   27.3520   53.0960 C.3      10 GLP5        0.0000 
     55 CA         24.3095   28.7535   58.0320 C.3       5 GLC5        0.0000 
     56 CA         27.6670   27.7795   57.2965 C.3       5 GLC5        0.0000 
     57 CA         29.7440   28.2060   57.4620 C.3      10 GLP5        0.0000 
     58 CA         24.2500   29.6210   57.2510 C.3       5 GLC5        0.0000 
     59 CA         25.4710   29.0880   55.5690 C.3      15 GLL5        0.0000 
     60 CA         21.1325   33.2310   53.2395 C.3       5 GLC5        0.0000 
     61 CA         22.9610   33.0340   54.6590 C.3      15 GLL5        0.0000 
     62 CA         19.2390   33.0380   52.4740 C.3      10 GLP5        0.0000 
     63 CA         24.7550   28.0397   54.1310 C.3       5 GLC5        0.0000 
     64 CA         27.8693   28.7259   55.8296 C.3       5 GLC5        0.0000 
     65 CA         26.3350   28.3670   54.7630 C.3      15 GLL5        0.0000 
     66 CA         29.7050   29.0400   56.3970 C.3      10 GLP5        0.0000 
@<TRIPOS>BOND
@<TRIPOS>SUBSTRUCTURE
     1 ALC1       37 GROUP        1 X    ALC  0     ROOT ALC X 1
     2 SEC2        1 GROUP        1 X    SEC  0     **** SEC X 2
     3 LYC4       10 GROUP        1 X    LYC  0     **** LYC X 4
     4 ZIC7        4 GROUP        1 X    ZIC  0     **** ZIC X 5
     5 GLC5       32 GROUP        1 X    GLC  0     **** GLC X 6
     6 ALP1       39 GROUP        1 Y    ALP  0     ROOT ALP Y 8
     7 SEP2        3 GROUP        1 Y    SEP  0     **** SEP Y 9
     8 LYP4       12 GROUP        1 Y    LYP  0     **** LYP Y 11
     9 ZIP7        6 GROUP        1 Y    ZIP  0     **** ZIP Y 12
    10 GLP5       34 GROUP        1 Y    GLP  0     **** GLP Y 13
    11 ALL1       38 GROUP        1 Z    ALL  0     ROOT ALL Z 15
    12 SEL2        2 GROUP        1 Z    SEL  0     **** SEL Z 16
    13 LYL4       11 GROUP        1 Z    LYL  0     **** LYL Z 18
    14 ZIL7        5 GROUP        1 Z    ZIL  0     **** ZIL Z 19
    15 GLL5       33 GROUP        1 Z    GLL  0     **** GLL Z 20
@<TRIPOS>SET

