#    Name: 1vrp_ADP_2_ligand
#    Modification time : Tue Mar 25 08:12:55 2014

@<TRIPOS>MOLECULE
1vrp_ADP_2_ligand
   39    41     1     0     0
SMALL
NO_CHARGES


@<TRIPOS>ATOM
      1 PB         23.3740   32.7750   49.6300 P.3       1 ADP400      0.0000 
      2 O1B        23.7060   33.7850   48.6240 O.co2     1 ADP400      0.0000 
      3 O2B        21.9240   32.7620   49.8940 O.co2     1 ADP400      0.0000 
      4 O3B        23.8720   31.4370   49.2020 O.co2     1 ADP400      0.0000 
      5 PA         24.7840   34.4370   51.6200 P.3       1 ADP400      0.0000 
      6 O1A        23.9450   35.5340   51.0660 O.co2     1 ADP400      0.0000 
      7 O2A        26.2350   34.5840   51.3620 O.co2     1 ADP400      0.0000 
      8 O3A        24.2750   33.2670   50.9760 O.3       1 ADP400      0.0000 
      9 O5'        24.4740   33.9060   52.9780 O.3       1 ADP400      0.0000 
     10 C5'        23.0910   33.8140   53.3510 C.3       1 ADP400      0.0000 
     11 C4'        22.9610   33.0340   54.6590 C.3       1 ADP400      0.0000 
     12 O4'        23.2970   31.6440   54.4540 O.3       1 ADP400      0.0000 
     13 C3'        23.8860   33.5330   55.7600 C.3       1 ADP400      0.0000 
     14 O3'        23.1890   33.5410   57.0150 O.3       1 ADP400      0.0000 
     15 C2'        25.0420   32.5530   55.7520 C.3       1 ADP400      0.0000 
     16 O2'        25.7710   32.5900   56.9750 O.3       1 ADP400      0.0000 
     17 C1'        24.2970   31.2650   55.4320 C.3       1 ADP400      0.0000 
     18 N9         25.2030   30.1970   54.8990 N.pl3     1 ADP400      0.0000 
     19 C8         25.8820   30.1510   53.7340 C.2       1 ADP400      0.0000 
     20 N7         26.5970   29.0140   53.6340 N.2       1 ADP400      0.0000 
     21 C5         26.3350   28.3670   54.7630 C.ar      1 ADP400      0.0000 
     22 C6         26.8570   27.1040   55.1480 C.ar      1 ADP400      0.0000 
     23 N6         27.6960   26.3830   54.3990 N.pl3     1 ADP400      0.0000 
     24 N1         26.4350   26.6420   56.3620 N.ar      1 ADP400      0.0000 
     25 C2         25.5900   27.3530   57.1310 C.ar      1 ADP400      0.0000 
     26 N3         25.1020   28.5520   56.7630 N.ar      1 ADP400      0.0000 
     27 C4         25.4710   29.0880   55.5690 C.ar      1 ADP400      0.0000 
     28 H          22.5016   33.2931   52.5893 H         1 ADP400      0.0000 
     29 H          22.6479   34.8034   53.5045 H         1 ADP400      0.0000 
     30 H          21.9417   33.1122   55.0165 H         1 ADP400      0.0000 
     31 H          24.2473   34.4922   55.4758 H         1 ADP400      0.0000 
     32 H          25.6369   32.8006   54.8824 H         1 ADP400      0.0000 
     33 H          23.8153   30.9299   56.3349 H         1 ADP400      0.0000 
     34 H          25.8572   30.8559   53.0486 H         1 ADP400      0.0000 
     35 H          27.9492   26.7791   53.5164 H         1 ADP400      0.0000 
     36 H          27.9955   25.5119   54.7882 H         1 ADP400      0.0000 
     37 H          25.2954   26.9505   58.0692 H         1 ADP400      0.0000 
     38 H          23.8771   33.2869   57.6947 H         1 ADP400      0.0000 
     39 H          26.7329   32.6100   56.7023 H         1 ADP400      0.0000 
@<TRIPOS>BOND
     1    2    1 ar   
     2    3    1 ar   
     3    4    1 ar   
     4    8    1 1    
     5    6    5 ar   
     6    7    5 ar   
     7    8    5 1    
     8    9    5 1    
     9   10    9 1    
    10   11   10 1    
    11   28   10 1    
    12   29   10 1    
    13   12   11 1    
    14   13   11 1    
    15   30   11 1    
    16   17   12 1    
    17   14   13 1    
    18   15   13 1    
    19   31   13 1    
    20   38   14 1    
    21   16   15 1    
    22   17   15 1    
    23   32   15 1    
    24   39   16 1    
    25   18   17 1    
    26   33   17 1    
    27   19   18 1    
    28   27   18 1    
    29   20   19 2    
    30   34   19 1    
    31   21   20 1    
    32   22   21 ar   
    33   27   21 ar   
    34   23   22 1    
    35   24   22 ar   
    36   35   23 1    
    37   36   23 1    
    38   25   24 ar   
    39   26   25 ar   
    40   37   25 1    
    41   27   26 ar   
@<TRIPOS>SUBSTRUCTURE
     1 ADP400      1 GROUP   
@<TRIPOS>SET

