#    Name: 3fwy_ADP_2_INTS_M
#    Modification time : Tue Mar 25 06:42:58 2014

@<TRIPOS>MOLECULE
3fwy_ADP_2_INTS_M
   73     0    15     0     0
SMALL
NO_CHARGES


@<TRIPOS>ATOM
      1 NZ          3.8850   58.1410   83.8765 N.4       3 LYC4        0.0000 
      2 NZ          2.7630   58.0110   84.7630 N.4      13 LYL4        0.0000 
      3 NZ          5.0070   58.2710   82.9900 N.4       8 LYP4        0.0000 
      4 N           2.1890   56.9685   85.6750 N.am      2 SEC2        0.0000 
      5 N           2.7630   58.0110   84.7630 N.am     12 SEL2        0.0000 
      6 N           1.6150   55.9260   86.5870 N.am      7 SEP2        0.0000 
      7 N           3.1650   57.9020   86.1045 N.am      2 SEC2        0.0000 
      8 N           3.5670   57.7930   87.4460 N.am      7 SEP2        0.0000 
      9 N           3.8850   58.1410   83.8765 N.am      2 SEC2        0.0000 
     10 N           5.0070   58.2710   82.9900 N.am      7 SEP2        0.0000 
     11 NZ          3.2400   58.9020   83.1230 N.4       3 LYC4        0.0000 
     12 NZ          1.4730   59.5330   83.2560 N.4      13 LYL4        0.0000 
     13 NZ          0.4135   60.2990   82.5530 N.4       3 LYC4        0.0000 
     14 NZ         -0.6460   61.0650   81.8500 N.4       8 LYP4        0.0000 
     15 N           1.4375   58.2815   82.4960 N.am      2 SEC2        0.0000 
     16 N           1.4730   59.5330   83.2560 N.am     12 SEL2        0.0000 
     17 N           1.4020   57.0300   81.7360 N.am      7 SEP2        0.0000 
     18 N           0.4135   60.2990   82.5530 N.am      2 SEC2        0.0000 
     19 N          -0.6460   61.0650   81.8500 N.am      7 SEP2        0.0000 
     20 Zn          2.5865   61.4020   85.0740 Zn        4 ZIC7        0.0000 
     21 Zn          2.3720   60.4390   85.4340 Zn       14 ZIL7        0.0000 
     22 Zn          2.8010   62.3650   84.7140 Zn        9 ZIP7        0.0000 
     23 N           2.9220   60.5175   86.7755 N.am      2 SEC2        0.0000 
     24 N           2.3720   60.4390   85.4340 N.am     12 SEL2        0.0000 
     25 N           3.4720   60.5960   88.1170 N.am      7 SEP2        0.0000 
     26 N           0.9870   59.9880   89.0090 N.am      2 SEC2        0.0000 
     27 N           0.3570   59.4400   87.8710 N.am     12 SEL2        0.0000 
     28 N           1.6170   60.5360   90.1470 N.am      7 SEP2        0.0000 
     29 N          -0.3010   59.3540   89.0520 N.am      2 SEC2        0.0000 
     30 N          -0.9590   59.2680   90.2330 N.am      7 SEP2        0.0000 
     31 N           1.0880   57.3245   86.0110 N.am      2 SEC2        0.0000 
     32 N           0.5610   58.7230   85.4350 N.am     12 SEL2        0.0000 
     33 CA         -1.1640   57.4835   84.0030 C.3       5 GLC5        0.0000 
     34 CA         -2.4750   58.2920   85.5960 C.3      15 GLL5        0.0000 
     35 CA          0.1470   56.6750   82.4100 C.3      10 GLP5        0.0000 
     36 N          -3.2050   55.4765   86.5950 N.am      2 SEC2        0.0000 
     37 N          -3.8610   56.8450   87.0050 N.am     12 SEL2        0.0000 
     38 N          -2.5490   54.1080   86.1850 N.am      7 SEP2        0.0000 
     39 N          -0.6615   54.6480   90.2225 N.am      2 SEC2        0.0000 
     40 N          -1.7830   55.4680   90.3890 N.am     12 SEL2        0.0000 
     41 N           0.4600   53.8280   90.0560 N.am      7 SEP2        0.0000 
     42 CA         -1.7445   56.7285   91.7190 C.3       5 GLC5        0.0000 
     43 CA         -2.9140   55.0150   90.9610 C.3      15 GLL5        0.0000 
     44 CA         -0.5750   58.4420   92.4770 C.3      10 GLP5        0.0000 
     45 CA         -3.5030   52.8545   90.7225 C.3       5 GLC5        0.0000 
     46 CA         -3.2460   54.1080   92.0710 C.3      15 GLL5        0.0000 
     47 CA         -3.7600   51.6010   89.3740 C.3      10 GLP5        0.0000 
     48 CA         -4.2450   52.3740   92.5560 C.3       5 GLC5        0.0000 
     49 CA         -5.2440   50.6400   93.0410 C.3      10 GLP5        0.0000 
     50 CA         -3.1175   54.9980   93.6865 C.3       5 GLC5        0.0000 
     51 CA         -2.9890   55.8880   95.3020 C.3      10 GLP5        0.0000 
     52 O          -0.8405   53.5200   92.5200 O.2       1 ALC1        0.0000 
     53 O          -2.2560   53.5270   92.7700 O.2      11 ALL1        0.0000 
     54 O           0.5750   53.5130   92.2700 O.2       6 ALP1        0.0000 
     55 O          -2.6845   52.4950   93.7140 O.2       1 ALC1        0.0000 
     56 O          -3.1130   51.4630   94.6580 O.2       6 ALP1        0.0000 
     57 N          -5.3725   53.1885   93.3465 N.am      2 SEC2        0.0000 
     58 N          -4.5560   53.9090   92.3520 N.am     12 SEL2        0.0000 
     59 N          -6.1890   52.4680   94.3410 N.am      7 SEP2        0.0000 
     60 CA         -4.6480   53.0545   90.5090 C.3       5 GLC5        0.0000 
     61 CA         -5.5360   54.5080   91.6440 C.3      15 GLL5        0.0000 
     62 CA         -5.3900   52.5740   92.3425 C.3       5 GLC5        0.0000 
     63 CA         -6.3025   53.7980   93.4870 C.3       5 GLC5        0.0000 
     64 CA         -7.0690   53.0880   95.3300 C.3      10 GLP5        0.0000 
     65 CA         -5.1955   55.8795   92.9415 C.3       5 GLC5        0.0000 
     66 CA         -4.8550   57.2510   94.2390 C.3      10 GLP5        0.0000 
     67 CA         -7.1635   55.9755   91.1930 C.3       5 GLC5        0.0000 
     68 CA         -8.7910   57.4430   90.7420 C.3      10 GLP5        0.0000 
     69 CA         -3.6715   53.9467   89.4190 C.3       5 GLC5        0.0000 
     70 CA         -4.0300   55.6260   90.2490 C.3      15 GLL5        0.0000 
     71 CA         -3.8710   52.5730   88.2330 C.3      10 GLP5        0.0000 
     72 CA         -3.6435   56.5602   91.9210 C.3       5 GLC5        0.0000 
     73 CA         -3.8150   57.8000   93.2370 C.3      10 GLP5        0.0000 
@<TRIPOS>BOND
@<TRIPOS>SUBSTRUCTURE
     1 ALC1       52 GROUP        1 X    ALC  0     ROOT ALC X 1
     2 SEC2        4 GROUP        1 X    SEC  0     **** SEC X 2
     3 LYC4        1 GROUP        1 X    LYC  0     **** LYC X 4
     4 ZIC7       20 GROUP        1 X    ZIC  0     **** ZIC X 5
     5 GLC5       33 GROUP        1 X    GLC  0     **** GLC X 6
     6 ALP1       54 GROUP        1 Y    ALP  0     ROOT ALP Y 8
     7 SEP2        6 GROUP        1 Y    SEP  0     **** SEP Y 9
     8 LYP4        3 GROUP        1 Y    LYP  0     **** LYP Y 11
     9 ZIP7       22 GROUP        1 Y    ZIP  0     **** ZIP Y 12
    10 GLP5       35 GROUP        1 Y    GLP  0     **** GLP Y 13
    11 ALL1       53 GROUP        1 Z    ALL  0     ROOT ALL Z 15
    12 SEL2        5 GROUP        1 Z    SEL  0     **** SEL Z 16
    13 LYL4        2 GROUP        1 Z    LYL  0     **** LYL Z 18
    14 ZIL7       21 GROUP        1 Z    ZIL  0     **** ZIL Z 19
    15 GLL5       34 GROUP        1 Z    GLL  0     **** GLL Z 20
@<TRIPOS>SET

