#    Name: 3fwy_ADP_2_ligand
#    Modification time : Tue Mar 25 06:42:58 2014

@<TRIPOS>MOLECULE
3fwy_ADP_2_ligand
   39    41     1     0     0
SMALL
NO_CHARGES


@<TRIPOS>ATOM
      1 PB          1.9010   59.2120   84.6480 P.3       1 ADP501      0.0000 
      2 O1B         2.7630   58.0110   84.7630 O.co2     1 ADP501      0.0000 
      3 O2B         1.4730   59.5330   83.2560 O.co2     1 ADP501      0.0000 
      4 O3B         2.3720   60.4390   85.4340 O.co2     1 ADP501      0.0000 
      5 PA         -0.3280   59.5150   86.5420 P.3       1 ADP501      0.0000 
      6 O1A        -0.8630   60.7590   85.9650 O.co2     1 ADP501      0.0000 
      7 O2A         0.3570   59.4400   87.8710 O.co2     1 ADP501      0.0000 
      8 O3A         0.5610   58.7230   85.4350 O.3       1 ADP501      0.0000 
      9 O5'        -1.5730   58.4870   86.6790 O.3       1 ADP501      0.0000 
     10 C5'        -2.4750   58.2920   85.5960 C.3       1 ADP501      0.0000 
     11 C4'        -3.8660   58.0000   86.1640 C.3       1 ADP501      0.0000 
     12 O4'        -3.8610   56.8450   87.0050 O.3       1 ADP501      0.0000 
     13 C3'        -4.3120   59.1650   87.0320 C.3       1 ADP501      0.0000 
     14 O3'        -5.6800   59.4370   86.7440 O.3       1 ADP501      0.0000 
     15 C2'        -4.0800   58.6810   88.4490 C.3       1 ADP501      0.0000 
     16 O2'        -4.9830   59.3090   89.3650 O.3       1 ADP501      0.0000 
     17 C1'        -4.2780   57.1760   88.3380 C.3       1 ADP501      0.0000 
     18 N9         -3.4910   56.3860   89.3090 N.pl3     1 ADP501      0.0000 
     19 C8         -2.1580   56.2890   89.3780 C.2       1 ADP501      0.0000 
     20 N7         -1.7830   55.4680   90.3890 N.2       1 ADP501      0.0000 
     21 C5         -2.9140   55.0150   90.9610 C.ar      1 ADP501      0.0000 
     22 C6         -3.2460   54.1080   92.0710 C.ar      1 ADP501      0.0000 
     23 N6         -2.2560   53.5270   92.7700 N.pl3     1 ADP501      0.0000 
     24 N1         -4.5560   53.9090   92.3520 N.ar      1 ADP501      0.0000 
     25 C2         -5.5360   54.5080   91.6440 C.ar      1 ADP501      0.0000 
     26 N3         -5.3060   55.3410   90.6200 N.ar      1 ADP501      0.0000 
     27 C4         -4.0300   55.6260   90.2490 C.ar      1 ADP501      0.0000 
     28 H          -2.1873   57.4448   84.9698 H         1 ADP501      0.0000 
     29 H          -2.5540   59.1784   84.9631 H         1 ADP501      0.0000 
     30 H          -4.5609   57.9001   85.3575 H         1 ADP501      0.0000 
     31 H          -3.6652   59.9829   86.8322 H         1 ADP501      0.0000 
     32 H          -3.0478   58.8594   88.6845 H         1 ADP501      0.0000 
     33 H          -5.3316   56.9697   88.4457 H         1 ADP501      0.0000 
     34 H          -1.5271   56.7480   88.7798 H         1 ADP501      0.0000 
     35 H          -2.5388   52.8883   93.4856 H         1 ADP501      0.0000 
     36 H          -1.3250   53.7853   92.5121 H         1 ADP501      0.0000 
     37 H          -6.5479   54.3048   91.9174 H         1 ADP501      0.0000 
     38 H          -5.6793   60.3398   86.3140 H         1 ADP501      0.0000 
     39 H          -5.7106   59.6871   88.7927 H         1 ADP501      0.0000 
@<TRIPOS>BOND
     1    2    1 ar   
     2    3    1 ar   
     3    4    1 ar   
     4    8    1 1    
     5    6    5 ar   
     6    7    5 ar   
     7    8    5 1    
     8    9    5 1    
     9   10    9 1    
    10   11   10 1    
    11   28   10 1    
    12   29   10 1    
    13   12   11 1    
    14   13   11 1    
    15   30   11 1    
    16   17   12 1    
    17   14   13 1    
    18   15   13 1    
    19   31   13 1    
    20   38   14 1    
    21   16   15 1    
    22   17   15 1    
    23   32   15 1    
    24   39   16 1    
    25   18   17 1    
    26   33   17 1    
    27   19   18 1    
    28   27   18 1    
    29   20   19 2    
    30   34   19 1    
    31   21   20 1    
    32   22   21 ar   
    33   27   21 ar   
    34   23   22 1    
    35   24   22 ar   
    36   35   23 1    
    37   36   23 1    
    38   25   24 ar   
    39   26   25 ar   
    40   37   25 1    
    41   27   26 ar   
@<TRIPOS>SUBSTRUCTURE
     1 ADP501      1 GROUP   
@<TRIPOS>SET

