#    Name: 3ipy_B87_1_INTS_M
#    Modification time : Tue Mar 25 17:05:04 2014

@<TRIPOS>MOLECULE
3ipy_B87_1_INTS_M
   58     0     3     0     0
SMALL
NO_CHARGES


@<TRIPOS>ATOM
      1 CA          9.9770    5.9115   18.9235 C.3       1 GLC5        0.0000 
      2 CA         10.3260    5.3080   16.8470 C.3       3 GLL5        0.0000 
      3 CA          9.6280    6.5150   21.0000 C.3       2 GLP5        0.0000 
      4 CA         13.0045    5.8480   19.8085 C.3       1 GLC5        0.0000 
      5 CA         12.1180    4.7540   18.4460 C.3       3 GLL5        0.0000 
      6 CA         13.8910    6.9420   21.1710 C.3       2 GLP5        0.0000 
      7 CA         13.2865    3.9410   17.0600 C.3       1 GLC5        0.0000 
      8 CA         14.4550    3.1280   15.6740 C.3       2 GLP5        0.0000 
      9 CA         10.9745    3.4685   20.5975 C.3       1 GLC5        0.0000 
     10 CA         11.1390    3.5890   18.4060 C.3       3 GLL5        0.0000 
     11 CA         10.8100    3.3480   22.7890 C.3       2 GLP5        0.0000 
     12 CA         11.4655    1.5335   17.6615 C.3       1 GLC5        0.0000 
     13 CA         11.7920   -0.5220   16.9170 C.3       2 GLP5        0.0000 
     14 CA         10.5385    8.3060   18.0975 C.3       1 GLC5        0.0000 
     15 CA         11.4730    7.8680   16.3420 C.3       3 GLL5        0.0000 
     16 CA          9.6040    8.7440   19.8530 C.3       2 GLP5        0.0000 
     17 CA         12.1550    6.8085   14.8980 C.3       1 GLC5        0.0000 
     18 CA         12.8370    5.7490   13.4540 C.3       2 GLP5        0.0000 
     19 CA         13.1710    7.4520   14.5230 C.3       1 GLC5        0.0000 
     20 CA         13.5050    9.1550   15.5920 C.3       3 GLL5        0.0000 
     21 CA         15.0795   10.3500   13.4720 C.3       1 GLC5        0.0000 
     22 CA         13.7030   10.5580   15.0310 C.3       3 GLL5        0.0000 
     23 CA         16.4560   10.1420   11.9130 C.3       2 GLP5        0.0000 
     24 CA         10.5955    9.5340   18.3420 C.3       1 GLC5        0.0000 
     25 CA         11.5870   10.3240   16.8310 C.3       3 GLL5        0.0000 
     26 CA         13.8140   15.3215   16.4365 C.3       1 GLC5        0.0000 
     27 CA         15.4440   14.4550   17.2180 C.3       3 GLL5        0.0000 
     28 CA         12.1840   16.1880   15.6550 C.3       2 GLP5        0.0000 
     29 CA         14.9460   14.5185   15.1405 C.3       1 GLC5        0.0000 
     30 CA         14.4480   14.5820   13.0630 C.3       2 GLP5        0.0000 
     31 CA         17.5865   14.7785   14.1520 C.3       1 GLC5        0.0000 
     32 CA         19.2780   14.5330   15.4040 C.3       3 GLL5        0.0000 
     33 CA         15.8950   15.0240   12.9000 C.3       2 GLP5        0.0000 
     34 CA         17.3285   13.6625   13.5155 C.3       1 GLC5        0.0000 
     35 CA         18.7620   12.3010   14.1310 C.3       3 GLL5        0.0000 
     36 CA         21.7750   13.6100   11.2575 C.3       1 GLC5        0.0000 
     37 CA         22.2500   12.7800   12.6690 C.3       3 GLL5        0.0000 
     38 CA         21.3000   14.4400    9.8460 C.3       2 GLP5        0.0000 
     39 CA         20.5695   13.5260   11.7995 C.3       1 GLC5        0.0000 
     40 CA         21.0030   12.1680   12.8850 C.3       3 GLL5        0.0000 
     41 CA         20.1360   14.8840   10.7140 C.3       2 GLP5        0.0000 
     42 CA          8.9838    4.0475   15.4283 C.3       1 GLC5        0.0000 
     43 CA          7.7450    3.5050   13.7790 C.3       2 GLP5        0.0000 
     44 CA         10.6283    5.3432   19.7130 C.3       1 GLC5        0.0000 
     45 CA         11.5119    3.6257   16.0249 C.3       1 GLC5        0.0000 
     46 CA         12.3430    3.1620   14.3080 C.3       2 GLP5        0.0000 
     47 CA         13.3745    9.7743   13.5498 C.3       1 GLC5        0.0000 
     48 CA         13.1450    9.6920   11.7880 C.3       2 GLP5        0.0000 
     49 CA         14.8742   13.4715   14.5103 C.3       1 GLC5        0.0000 
     50 CA         14.6950   12.4240   16.2990 C.3       3 GLL5        0.0000 
     51 CA         16.7168   14.1352   14.1553 C.3       1 GLC5        0.0000 
     52 CA         16.8790   13.2890   15.7710 C.3       3 GLL5        0.0000 
     53 CA         19.8337   13.8624   12.4106 C.3       1 GLC5        0.0000 
     54 CA         20.0910   12.7540   13.7590 C.3       3 GLL5        0.0000 
     55 CA         21.1585   14.5900   12.2300 C.3       1 GLC5        0.0000 
     56 CA         21.7440   14.6140   14.1900 C.3       3 GLL5        0.0000 
     57 CA         20.4258   11.8187   11.3688 C.3       1 GLC5        0.0000 
     58 CA         19.4530   11.0170    9.7420 C.3       2 GLP5        0.0000 
@<TRIPOS>BOND
@<TRIPOS>SUBSTRUCTURE
     1 GLC5        1 GROUP        1 X    GLC  0     ROOT GLC X 6
     2 GLP5        3 GROUP        1 Y    GLP  0     ROOT GLP Y 13
     3 GLL5        2 GROUP        1 Z    GLL  0     ROOT GLL Z 20
@<TRIPOS>SET

