#    Name: 3ipy_B87_1_ligand
#    Modification time : Tue Mar 25 17:05:04 2014

@<TRIPOS>MOLECULE
3ipy_B87_1_ligand
   55    59     1     0     0
SMALL
NO_CHARGES


@<TRIPOS>ATOM
      1 C1         10.1190    3.8720   17.3080 C.3       1 B87263      0.0000 
      2 C2         10.3260    5.3080   16.8470 C.3       1 B87263      0.0000 
      3 N3         11.5540    5.7350   17.5230 N.am      1 B87263      0.0000 
      4 C4         12.1180    4.7540   18.4460 C.3       1 B87263      0.0000 
      5 C5         11.1390    3.5890   18.4060 C.3       1 B87263      0.0000 
      6 C6         12.1220    6.9230   17.3350 C.2       1 B87263      0.0000 
      7 O7         13.1290    7.2600   17.9420 O.2       1 B87263      0.0000 
      8 C8         11.4730    7.8680   16.3420 C.3       1 B87263      0.0000 
      9 N9         12.2000    9.1250   16.2570 N.4       1 B87263      0.0000 
     10 C10        13.5050    9.1550   15.5920 C.3       1 B87263      0.0000 
     11 C11        13.7030   10.5580   15.0310 C.3       1 B87263      0.0000 
     12 N12        13.6910   11.4560   16.1700 N.3       1 B87263      0.0000 
     13 C13        12.6450   11.3830   17.1790 C.3       1 B87263      0.0000 
     14 C14        11.5870   10.3240   16.8310 C.3       1 B87263      0.0000 
     15 C15        14.6950   12.4240   16.2990 C.ar      1 B87263      0.0000 
     16 C16        15.9060   12.2980   15.6160 C.ar      1 B87263      0.0000 
     17 C17        16.8790   13.2890   15.7710 C.ar      1 B87263      0.0000 
     18 N18        16.6160   14.3460   16.5760 N.ar      1 B87263      0.0000 
     19 C19        15.4440   14.4550   17.2180 C.ar      1 B87263      0.0000 
     20 N20        14.4920   13.5140   17.0890 N.ar      1 B87263      0.0000 
     21 C21        18.1980   13.2040   15.0500 C.2       1 B87263      0.0000 
     22 S22        19.2780   14.5330   15.4040 S.3       1 B87263      0.0000 
     23 C23        20.5110   14.0070   14.4080 C.ar      1 B87263      0.0000 
     24 C24        20.0910   12.7540   13.7590 C.ar      1 B87263      0.0000 
     25 C25        18.7620   12.3010   14.1310 C.2       1 B87263      0.0000 
     26 C26        21.7440   14.6140   14.1900 C.ar      1 B87263      0.0000 
     27 C27        22.6180   13.9780   13.3020 C.ar      1 B87263      0.0000 
     28 C28        22.2500   12.7800   12.6690 C.ar      1 B87263      0.0000 
     29 C29        21.0030   12.1680   12.8850 C.ar      1 B87263      0.0000 
     30 H          10.2823    3.2001   16.4834 H         1 B87263      0.0000 
     31 H           9.1244    3.7585   17.7029 H         1 B87263      0.0000 
     32 H           9.4871    5.8968   17.1568 H         1 B87263      0.0000 
     33 H          10.4448    5.3177   15.7829 H         1 B87263      0.0000 
     34 H          12.1601    5.1368   19.4458 H         1 B87263      0.0000 
     35 H          13.0775    4.4116   18.1144 H         1 B87263      0.0000 
     36 H          11.6688    2.6788   18.1790 H         1 B87263      0.0000 
     37 H          10.6339    3.5081   19.3542 H         1 B87263      0.0000 
     38 H          10.4328    8.0392   16.6571 H         1 B87263      0.0000 
     39 H          11.4394    7.3693   15.3618 H         1 B87263      0.0000 
     40 H          12.8375    8.8381   17.5189 H         1 B87263      0.0000 
     41 H          13.5409    8.4465   14.7737 H         1 B87263      0.0000 
     42 H          14.3036    8.9464   16.2931 H         1 B87263      0.0000 
     43 H          12.8939   10.7722   14.3492 H         1 B87263      0.0000 
     44 H          14.6489   10.5895   14.5117 H         1 B87263      0.0000 
     45 H          12.1300   12.3501   17.2846 H         1 B87263      0.0000 
     46 H          13.0640   11.1279   18.1644 H         1 B87263      0.0000 
     47 H          11.0370   10.0807   17.7493 H         1 B87263      0.0000 
     48 H          10.8758   10.7749   16.1269 H         1 B87263      0.0000 
     49 H          16.0787   11.4945   15.0125 H         1 B87263      0.0000 
     50 H          15.2646   15.2890   17.8327 H         1 B87263      0.0000 
     51 H          18.3615   11.5178   13.7937 H         1 B87263      0.0000 
     52 H          21.9990   15.4723   14.6490 H         1 B87263      0.0000 
     53 H          23.5412   14.3909   13.1091 H         1 B87263      0.0000 
     54 H          22.9232   12.3288   12.0172 H         1 B87263      0.0000 
     55 H          20.7726   11.2975   12.4001 H         1 B87263      0.0000 
@<TRIPOS>BOND
     1    2    1 1    
     2    5    1 1    
     3   30    1 1    
     4   31    1 1    
     5    3    2 1    
     6   32    2 1    
     7   33    2 1    
     8    4    3 1    
     9    6    3 am   
    10    5    4 1    
    11   34    4 1    
    12   35    4 1    
    13   36    5 1    
    14   37    5 1    
    15    7    6 2    
    16    8    6 1    
    17    9    8 1    
    18   38    8 1    
    19   39    8 1    
    20   10    9 1    
    21   14    9 1    
    22   40    9 1    
    23   11   10 1    
    24   41   10 1    
    25   42   10 1    
    26   12   11 1    
    27   43   11 1    
    28   44   11 1    
    29   13   12 1    
    30   15   12 1    
    31   14   13 1    
    32   45   13 1    
    33   46   13 1    
    34   47   14 1    
    35   48   14 1    
    36   16   15 ar   
    37   20   15 ar   
    38   17   16 ar   
    39   49   16 1    
    40   18   17 ar   
    41   21   17 1    
    42   19   18 ar   
    43   20   19 ar   
    44   50   19 1    
    45   22   21 1    
    46   25   21 2    
    47   23   22 1    
    48   24   23 ar   
    49   26   23 ar   
    50   25   24 1    
    51   29   24 ar   
    52   51   25 1    
    53   27   26 ar   
    54   52   26 1    
    55   28   27 ar   
    56   53   27 1    
    57   29   28 ar   
    58   54   28 1    
    59   55   29 1    
@<TRIPOS>SUBSTRUCTURE
     1 B87263      1 GROUP   
@<TRIPOS>SET

