#    Name: 3fei_CTM_1_INTS_M
#    Modification time : Tue Mar 25 03:51:33 2014

@<TRIPOS>MOLECULE
3fei_CTM_1_INTS_M
   99     0     6     0     0
SMALL
NO_CHARGES


@<TRIPOS>ATOM
      1 CA         48.3060   34.5080   37.8555 C.3       2 GLC5        0.0000 
      2 CA         47.3110   32.7150   37.0750 C.3       6 GLL5        0.0000 
      3 CA         49.3010   36.3010   38.6360 C.3       4 GLP5        0.0000 
      4 CA         46.2075   31.5255   38.3970 C.3       2 GLC5        0.0000 
      5 CA         45.1040   30.3360   39.7190 C.3       4 GLP5        0.0000 
      6 CA         44.6840   36.3725   28.9470 C.3       2 GLC5        0.0000 
      7 CA         46.6050   36.4950   29.1620 C.3       6 GLL5        0.0000 
      8 CA         42.7630   36.2500   28.7320 C.3       4 GLP5        0.0000 
      9 CA         48.4970   36.3900   31.2420 C.3       2 GLC5        0.0000 
     10 CA         47.8950   37.2030   29.6000 C.3       6 GLL5        0.0000 
     11 CA         49.0990   35.5770   32.8840 C.3       4 GLP5        0.0000 
     12 N          46.9440   39.7590   28.6810 N.am      1 SEC2        0.0000 
     13 N          48.2400   39.2980   28.4940 N.am      5 SEL2        0.0000 
     14 N          45.6480   40.2200   28.8680 N.am      3 SEP2        0.0000 
     15 N          47.7655   40.0450   27.5045 N.am      1 SEC2        0.0000 
     16 N          47.2910   40.7920   26.5150 N.am      3 SEP2        0.0000 
     17 CA         48.3700   34.3680   28.4765 C.3       2 GLC5        0.0000 
     18 CA         47.0560   34.2920   30.2290 C.3       6 GLL5        0.0000 
     19 CA         49.6840   34.4440   26.7240 C.3       4 GLP5        0.0000 
     20 CA         47.3885   30.5985   31.6085 C.3       2 GLC5        0.0000 
     21 CA         46.3950   31.5680   33.3200 C.3       6 GLL5        0.0000 
     22 CA         48.3820   29.6290   29.8970 C.3       4 GLP5        0.0000 
     23 CA         44.8755   30.8920   31.9760 C.3       2 GLC5        0.0000 
     24 CA         43.3560   30.2160   30.6320 C.3       4 GLP5        0.0000 
     25 N          48.9820   36.1750   27.6385 N.am      1 SEC2        0.0000 
     26 N          49.2860   37.5030   27.6590 N.am      5 SEL2        0.0000 
     27 N          48.6780   34.8470   27.6180 N.am      3 SEP2        0.0000 
     28 N          49.1600   37.9240   26.4960 N.am      1 SEC2        0.0000 
     29 N          49.0340   38.3450   25.3330 N.am      3 SEP2        0.0000 
     30 CA         48.2235   31.8860   30.7950 C.3       2 GLC5        0.0000 
     31 CA         46.8460   33.3470   31.2280 C.3       6 GLL5        0.0000 
     32 CA         49.6010   30.4250   30.3620 C.3       4 GLP5        0.0000 
     33 CA         51.1040   31.8215   41.2125 C.3       2 GLC5        0.0000 
     34 CA         50.5380   31.1330   39.4460 C.3       6 GLL5        0.0000 
     35 CA         51.6700   32.5100   42.9790 C.3       4 GLP5        0.0000 
     36 CA         50.6025   33.2895   40.0055 C.3       2 GLC5        0.0000 
     37 CA         50.6670   35.4460   40.5650 C.3       4 GLP5        0.0000 
     38 CA         51.1600   28.9185   41.3115 C.3       2 GLC5        0.0000 
     39 CA         52.6980   29.5990   40.1390 C.3       6 GLL5        0.0000 
     40 CA         49.6220   28.2380   42.4840 C.3       4 GLP5        0.0000 
     41 CA         52.1840   31.0545   41.5590 C.3       2 GLC5        0.0000 
     42 CA         52.7955   28.1120   41.5560 C.3       2 GLC5        0.0000 
     43 CA         52.8930   26.6250   42.9730 C.3       4 GLP5        0.0000 
     44 CA         53.2700   30.9325   38.5835 C.3       2 GLC5        0.0000 
     45 CA         53.8420   32.2660   37.0280 C.3       4 GLP5        0.0000 
     46 CA         43.7170   36.6580   30.0240 C.3       2 GLC5        0.0000 
     47 CA         44.6710   37.0660   31.3160 C.3       6 GLL5        0.0000 
     48 CA         44.9165   38.3630   32.9105 C.3       2 GLC5        0.0000 
     49 CA         45.1620   39.6600   34.5050 C.3       4 GLP5        0.0000 
     50 CA         44.8265   36.2995   33.1395 C.3       2 GLC5        0.0000 
     51 CA         44.9820   35.5330   34.9630 C.3       4 GLP5        0.0000 
     52 CA         42.9140   37.9805   31.2870 C.3       2 GLC5        0.0000 
     53 CA         41.1570   38.8950   31.2580 C.3       4 GLP5        0.0000 
     54 CA         51.0185   38.3015   30.5435 C.3       2 GLC5        0.0000 
     55 CA         48.9290   38.6250   31.1170 C.3       6 GLL5        0.0000 
     56 CA         53.1080   37.9780   29.9700 C.3       4 GLP5        0.0000 
     57 CA         49.8400   40.5845   33.1590 C.3       2 GLC5        0.0000 
     58 CA         48.6920   39.6220   32.2510 C.3       6 GLL5        0.0000 
     59 CA         50.9880   41.5470   34.0670 C.3       4 GLP5        0.0000 
     60 CA         46.9270   39.6410   33.3780 C.3       2 GLC5        0.0000 
     61 CA         48.1030   41.2400   30.9715 C.3       2 GLC5        0.0000 
     62 CA         47.5140   42.8580   29.6920 C.3       4 GLP5        0.0000 
     63 CA         47.5922   34.0560   35.4125 C.3       2 GLC5        0.0000 
     64 CA         46.4480   32.6790   35.5610 C.3       6 GLL5        0.0000 
     65 CA         48.3050   35.4150   34.5070 C.3       4 GLP5        0.0000 
     66 CA         45.4348   32.4620   36.4495 C.3       2 GLC5        0.0000 
     67 CA         43.9900   32.2270   36.5810 C.3       4 GLP5        0.0000 
     68 CA         47.4985   33.5415   34.2585 C.3       2 GLC5        0.0000 
     69 CA         46.9890   31.7680   34.7000 C.3       6 GLL5        0.0000 
     70 CA         45.3410   31.9475   35.2955 C.3       2 GLC5        0.0000 
     71 CA         46.8846   30.3813   36.3035 C.3       2 GLC5        0.0000 
     72 CA         46.8350   28.5300   37.0980 C.3       4 GLP5        0.0000 
     73 CA         45.9581   33.8828   35.2360 C.3       2 GLC5        0.0000 
     74 CA         47.4963   35.6085   31.8230 C.3       2 GLC5        0.0000 
     75 CA         45.4390   35.7820   31.2780 C.3       6 GLL5        0.0000 
     76 CA         48.4670   35.6465   28.0525 C.3       2 GLC5        0.0000 
     77 CA         47.0300   37.1850   27.4065 C.3       2 GLC5        0.0000 
     78 CA         46.8100   37.5210   25.4320 C.3       4 GLP5        0.0000 
     79 CA         48.1567   29.9042   37.5165 C.3       2 GLC5        0.0000 
     80 CA         49.4190   31.0020   37.2940 C.3       6 GLL5        0.0000 
     81 CA         46.9398   34.8345   33.3810 C.3       2 GLC5        0.0000 
     82 CA         45.2200   34.8520   32.2780 C.3       6 GLL5        0.0000 
     83 CA         43.9558   33.3665   31.6790 C.3       2 GLC5        0.0000 
     84 CA         45.9290   33.6560   32.2320 C.3       6 GLL5        0.0000 
     85 CA         42.3370   32.4790   31.1030 C.3       4 GLP5        0.0000 
     86 CA         48.0250   34.6983   31.8062 C.3       2 GLC5        0.0000 
     87 CA         48.5445   31.7450   40.2735 C.3       2 GLC5        0.0000 
     88 CA         49.5380   31.5550   38.5760 C.3       6 GLL5        0.0000 
     89 CA         47.0510   32.1460   41.5360 C.3       4 GLP5        0.0000 
     90 CA         51.2469   31.7966   36.6713 C.3       2 GLC5        0.0000 
     91 CA         52.5970   32.9540   35.9270 C.3       4 GLP5        0.0000 
     92 CA         49.3250   28.5865   37.2078 C.3       2 GLC5        0.0000 
     93 CA         50.3150   30.0000   36.8960 C.3       6 GLL5        0.0000 
     94 CA         47.8350   27.3850   37.0840 C.3       4 GLP5        0.0000 
     95 CA         45.3056   35.0097   33.4840 C.3       2 GLC5        0.0000 
     96 CA         50.3020   29.4372   40.8630 C.3       2 GLC5        0.0000 
     97 CA         52.4952   31.1861   37.7662 C.3       2 GLC5        0.0000 
     98 CA         51.3150   29.5760   37.7670 C.3       6 GLL5        0.0000 
     99 CA         48.9547   37.3503   32.2840 C.3       2 GLC5        0.0000 
@<TRIPOS>BOND
@<TRIPOS>SUBSTRUCTURE
     1 SEC2       12 GROUP        1 X    SEC  0     ROOT SEC X 2
     2 GLC5        1 GROUP        1 X    GLC  0     **** GLC X 6
     3 SEP2       14 GROUP        1 Y    SEP  0     ROOT SEP Y 9
     4 GLP5        3 GROUP        1 Y    GLP  0     **** GLP Y 13
     5 SEL2       13 GROUP        1 Z    SEL  0     ROOT SEL Z 16
     6 GLL5        2 GROUP        1 Z    GLL  0     **** GLL Z 20
@<TRIPOS>SET

