#    Name: 3fei_CTM_1_ligand
#    Modification time : Tue Mar 25 03:51:33 2014

@<TRIPOS>MOLECULE
3fei_CTM_1_ligand
   50    52     1     0     0
SMALL
NO_CHARGES


@<TRIPOS>ATOM
      1 N1         48.0770   31.0950   35.1900 N.2       1 CTM1        0.0000 
      2 C2         48.3560   31.4880   36.4230 C.2       1 CTM1        0.0000 
      3 S3         47.3110   32.7150   37.0750 S.3       1 CTM1        0.0000 
      4 C4         46.9890   31.7680   34.7000 C.2       1 CTM1        0.0000 
      5 C5         46.4480   32.6790   35.5610 C.2       1 CTM1        0.0000 
      6 C6         48.4710   38.0940   28.5530 C.2       1 CTM1        0.0000 
      7 C7         46.3480   35.4980   30.2460 C.ar      1 CTM1        0.0000 
      8 C8         46.6050   36.4950   29.1620 C.3       1 CTM1        0.0000 
      9 C9         49.4190   31.0020   37.2940 C.ar      1 CTM1        0.0000 
     10 C10        45.4390   35.7820   31.2780 C.ar      1 CTM1        0.0000 
     11 C11        47.8950   37.2030   29.6000 C.3       1 CTM1        0.0000 
     12 C12        45.2200   34.8520   32.2780 C.ar      1 CTM1        0.0000 
     13 O13        48.2400   39.2980   28.4940 O.co2     1 CTM1        0.0000 
     14 C14        47.0560   34.2920   30.2290 C.ar      1 CTM1        0.0000 
     15 C15        49.5380   31.5550   38.5760 C.ar      1 CTM1        0.0000 
     16 C16        50.3150   30.0000   36.8960 C.ar      1 CTM1        0.0000 
     17 C17        46.3950   31.5680   33.3200 C.3       1 CTM1        0.0000 
     18 C18        45.9290   33.6560   32.2320 C.ar      1 CTM1        0.0000 
     19 O19        45.6680   32.7760   33.2350 O.3       1 CTM1        0.0000 
     20 O20        49.2860   37.5030   27.6590 O.co2     1 CTM1        0.0000 
     21 C21        51.4260   30.1400   39.0380 C.ar      1 CTM1        0.0000 
     22 C22        46.8460   33.3470   31.2280 C.ar      1 CTM1        0.0000 
     23 C23        50.5380   31.1330   39.4460 C.ar      1 CTM1        0.0000 
     24 C24        51.3150   29.5760   37.7670 C.ar      1 CTM1        0.0000 
     25 CL25       52.6980   29.5990   40.1390 Cl        1 CTM1        0.0000 
     26 O26        47.6990   37.9910   30.7720 O.3       1 CTM1        0.0000 
     27 C27        44.6710   37.0660   31.3160 C.3       1 CTM1        0.0000 
     28 C28        48.9290   38.6250   31.1170 C.3       1 CTM1        0.0000 
     29 C29        48.6920   39.6220   32.2510 C.3       1 CTM1        0.0000 
     30 H          45.7420   33.2750   35.5351 H         1 CTM1        0.0000 
     31 H          45.8162   37.2085   29.1111 H         1 CTM1        0.0000 
     32 H          46.7751   36.0053   28.2319 H         1 CTM1        0.0000 
     33 H          48.6424   36.4185   29.8154 H         1 CTM1        0.0000 
     34 H          44.5585   35.0342   33.0292 H         1 CTM1        0.0000 
     35 H          47.7307   34.1071   29.4770 H         1 CTM1        0.0000 
     36 H          48.8720   32.2856   38.8748 H         1 CTM1        0.0000 
     37 H          50.2304   29.5823   35.9630 H         1 CTM1        0.0000 
     38 H          45.7738   30.7146   33.3407 H         1 CTM1        0.0000 
     39 H          47.1824   31.5115   32.6189 H         1 CTM1        0.0000 
     40 H          47.3413   32.4645   31.2275 H         1 CTM1        0.0000 
     41 H          50.6216   31.5478   40.3782 H         1 CTM1        0.0000 
     42 H          51.9756   28.8436   37.4731 H         1 CTM1        0.0000 
     43 H          49.3547   39.1767   30.2713 H         1 CTM1        0.0000 
     44 H          49.6783   37.9024   31.4593 H         1 CTM1        0.0000 
     45 H          45.2772   37.8602   31.3588 H         1 CTM1        0.0000 
     46 H          44.0964   37.1792   30.5054 H         1 CTM1        0.0000 
     47 H          44.0677   37.1145   32.1120 H         1 CTM1        0.0000 
     48 H          49.5353   40.0888   32.5174 H         1 CTM1        0.0000 
     49 H          48.0346   40.3296   31.9920 H         1 CTM1        0.0000 
     50 H          48.3334   39.1744   33.0702 H         1 CTM1        0.0000 
@<TRIPOS>BOND
     1    2    1 2    
     2    4    1 1    
     3    3    2 1    
     4    9    2 1    
     5    5    3 1    
     6    5    4 2    
     7   17    4 1    
     8   30    5 1    
     9   11    6 1    
    10   13    6 ar   
    11   20    6 ar   
    12    8    7 1    
    13   10    7 ar   
    14   14    7 ar   
    15   11    8 1    
    16   31    8 1    
    17   32    8 1    
    18   15    9 ar   
    19   16    9 ar   
    20   12   10 ar   
    21   27   10 1    
    22   26   11 1    
    23   33   11 1    
    24   18   12 ar   
    25   34   12 1    
    26   22   14 ar   
    27   35   14 1    
    28   23   15 ar   
    29   36   15 1    
    30   24   16 ar   
    31   37   16 1    
    32   19   17 1    
    33   38   17 1    
    34   39   17 1    
    35   19   18 1    
    36   22   18 ar   
    37   23   21 ar   
    38   24   21 ar   
    39   25   21 1    
    40   40   22 1    
    41   41   23 1    
    42   42   24 1    
    43   28   26 1    
    44   45   27 1    
    45   46   27 1    
    46   47   27 1    
    47   29   28 1    
    48   43   28 1    
    49   44   28 1    
    50   48   29 1    
    51   49   29 1    
    52   50   29 1    
@<TRIPOS>SUBSTRUCTURE
     1 CTM1        1 GROUP   
@<TRIPOS>SET

