#    Name: 1ypk_CCR_1_INTS_M
#    Modification time : Tue Mar 25 11:13:36 2014

@<TRIPOS>MOLECULE
1ypk_CCR_1_INTS_M
   78     0     9     0     0
SMALL
NO_CHARGES


@<TRIPOS>ATOM
      1 CA         22.0775  -12.0655   23.9245 C.3       3 GLC5        0.0000 
      2 CA         21.7730  -14.0650   24.2510 C.3       9 GLL5        0.0000 
      3 CA         22.3820  -10.0660   23.5980 C.3       6 GLP5        0.0000 
      4 CA         19.4685  -14.9960   27.2040 C.3       3 GLC5        0.0000 
      5 CA         18.1920  -14.3800   25.4930 C.3       9 GLL5        0.0000 
      6 CA         20.7450  -15.6120   28.9150 C.3       6 GLP5        0.0000 
      7 CA         17.6045  -13.2190   26.5880 C.3       3 GLC5        0.0000 
      8 CA         17.0170  -12.0580   27.6830 C.3       6 GLP5        0.0000 
      9 CA         16.7120  -15.3780   26.7745 C.3       3 GLC5        0.0000 
     10 CA         15.2320  -16.3760   28.0560 C.3       6 GLP5        0.0000 
     11 CA         22.5400  -12.1420   26.8875 C.3       3 GLC5        0.0000 
     12 CA         20.6750  -12.8300   26.1400 C.3       9 GLL5        0.0000 
     13 CA         24.4050  -11.4540   27.6350 C.3       6 GLP5        0.0000 
     14 CA         19.1850  -11.8605   26.7460 C.3       3 GLC5        0.0000 
     15 CA         17.6950  -10.8910   27.3520 C.3       6 GLP5        0.0000 
     16 CA         22.6045  -15.5550   20.6385 C.3       3 GLC5        0.0000 
     17 CA         20.8930  -16.6140   21.5850 C.3       9 GLL5        0.0000 
     18 CA         24.3160  -14.4960   19.6920 C.3       6 GLP5        0.0000 
     19 CA         20.5565  -17.1135   19.6645 C.3       3 GLC5        0.0000 
     20 CA         20.2200  -17.6130   17.7440 C.3       6 GLP5        0.0000 
     21 CA         24.4205  -13.3815   21.8420 C.3       3 GLC5        0.0000 
     22 CA         24.1050  -13.5560   23.8060 C.3       9 GLL5        0.0000 
     23 CA         24.7360  -13.2070   19.8780 C.3       6 GLP5        0.0000 
     24 CA         24.2550  -12.5050   25.7205 C.3       3 GLC5        0.0000 
     25 CA         23.2435  -11.8110   23.7020 C.3       3 GLC5        0.0000 
     26 O          15.7045  -14.8620   23.8730 O.2       1 ALC1        0.0000 
     27 O          16.7090  -15.4230   23.0390 O.2       7 ALL1        0.0000 
     28 O          14.7000  -14.3010   24.7070 O.2       4 ALP1        0.0000 
     29 N          15.5530  -12.2710   23.8080 N.am      2 SEC2        0.0000 
     30 N          16.3580  -12.7580   22.5990 N.am      8 SEL2        0.0000 
     31 N          14.7480  -11.7840   25.0170 N.am      5 SEP2        0.0000 
     32 N          12.9065  -17.1825   23.6365 N.am      2 SEC2        0.0000 
     33 N          13.9480  -17.4370   22.6910 N.am      8 SEL2        0.0000 
     34 N          11.8650  -16.9280   24.5820 N.am      5 SEP2        0.0000 
     35 CA         15.1015   -9.2735   18.5405 C.3       3 GLC5        0.0000 
     36 CA         14.9330  -11.1240   19.4730 C.3       9 GLL5        0.0000 
     37 CA         15.2700   -7.4230   17.6080 C.3       6 GLP5        0.0000 
     38 CA         10.3950  -13.0535   21.4875 C.3       3 GLC5        0.0000 
     39 CA         12.1010  -12.0470   21.8880 C.3       9 GLL5        0.0000 
     40 CA          8.6890  -14.0600   21.0870 C.3       6 GLP5        0.0000 
     41 O           9.4895   -9.5995   25.1225 O.2       1 ALC1        0.0000 
     42 O          10.8590   -9.7830   24.6370 O.2       7 ALL1        0.0000 
     43 O           8.1200   -9.4160   25.6080 O.2       4 ALP1        0.0000 
     44 O           9.0460  -11.7195   24.8470 O.2       1 ALC1        0.0000 
     45 O          10.1820  -11.8240   24.0690 O.2       7 ALL1        0.0000 
     46 O           7.9100  -11.6150   25.6250 O.2       4 ALP1        0.0000 
     47 O          10.3490  -13.2620   23.9505 O.2       1 ALC1        0.0000 
     48 O          10.5160  -14.7000   23.8320 O.2       4 ALP1        0.0000 
     49 CA         19.4035  -10.2070   18.1600 C.3       3 GLC5        0.0000 
     50 CA         19.6720  -11.8640   18.1020 C.3       9 GLL5        0.0000 
     51 CA         19.1350   -8.5500   18.2180 C.3       6 GLP5        0.0000 
     52 CA         22.1370  -13.6240   17.8510 C.3       3 GLC5        0.0000 
     53 CA         20.3590  -13.2250   18.3180 C.3       9 GLL5        0.0000 
     54 CA         23.9150  -14.0230   17.3840 C.3       6 GLP5        0.0000 
     55 CA         22.6625  -13.8445   19.7075 C.3       3 GLC5        0.0000 
     56 CA         21.0090  -13.1930   19.7230 C.3       9 GLL5        0.0000 
     57 CA         19.1510  -10.1215   19.3730 C.3       3 GLC5        0.0000 
     58 CA         19.1670  -11.6930   20.5280 C.3       9 GLL5        0.0000 
     59 CA         20.7832  -11.7658   24.3628 C.3       3 GLC5        0.0000 
     60 CA         20.6120  -13.9010   25.0010 C.3       9 GLL5        0.0000 
     61 CA         20.9230  -10.1660   23.1550 C.3       6 GLP5        0.0000 
     62 CA         20.6943  -14.4887   27.2428 C.3       3 GLC5        0.0000 
     63 CA         15.0150  -10.2360   22.6792 C.3       3 GLC5        0.0000 
     64 CA         13.9250   -9.9700   21.4760 C.3       9 GLL5        0.0000 
     65 CA         16.0860   -9.9400   24.3020 C.3       6 GLP5        0.0000 
     66 CA         13.0250   -7.9835   21.7687 C.3       3 GLC5        0.0000 
     67 CA         12.9850   -9.8880   22.5070 C.3       9 GLL5        0.0000 
     68 CA         12.5950   -6.0380   21.5460 C.3       6 GLP5        0.0000 
     69 CA         14.2967  -10.1677   23.4612 C.3       3 GLC5        0.0000 
     70 CA         12.0300  -10.9030   22.7340 C.3       9 GLL5        0.0000 
     71 CA         13.1506  -11.5697   24.1440 C.3       3 GLC5        0.0000 
     72 CA         13.7760  -12.4580   25.8790 C.3       6 GLP5        0.0000 
     73 CA         10.6275  -11.2523   20.8986 C.3       3 GLC5        0.0000 
     74 CA          8.9530  -11.0060   19.7440 C.3       6 GLP5        0.0000 
     75 CA         19.6878  -14.1988   17.2710 C.3       3 GLC5        0.0000 
     76 CA         19.3600  -15.8530   16.3320 C.3       6 GLP5        0.0000 
     77 CA         20.2305  -11.2608   21.9070 C.3       3 GLC5        0.0000 
     78 CA         19.9090  -13.0180   20.7900 C.3       9 GLL5        0.0000 
@<TRIPOS>BOND
@<TRIPOS>SUBSTRUCTURE
     1 ALC1       26 GROUP        1 X    ALC  0     ROOT ALC X 1
     2 SEC2       29 GROUP        1 X    SEC  0     **** SEC X 2
     3 GLC5        1 GROUP        1 X    GLC  0     **** GLC X 6
     4 ALP1       28 GROUP        1 Y    ALP  0     ROOT ALP Y 8
     5 SEP2       31 GROUP        1 Y    SEP  0     **** SEP Y 9
     6 GLP5        3 GROUP        1 Y    GLP  0     **** GLP Y 13
     7 ALL1       27 GROUP        1 Z    ALL  0     ROOT ALL Z 15
     8 SEL2       30 GROUP        1 Z    SEL  0     **** SEL Z 16
     9 GLL5        2 GROUP        1 Z    GLL  0     **** GLL Z 20
@<TRIPOS>SET

