#    Name: 1ypk_CCR_1_ligand
#    Modification time : Tue Mar 25 11:13:36 2014

@<TRIPOS>MOLECULE
1ypk_CCR_1_ligand
   81    83     1     0     0
SMALL
NO_CHARGES


@<TRIPOS>ATOM
      1 S20        18.0000  -16.4150   23.1520 S.o2      1 CCR5555     0.0000 
      2 O21        18.0260  -17.0930   21.8780 O.2       1 CCR5555     0.0000 
      3 O22        17.7620  -17.1910   24.3370 O.2       1 CCR5555     0.0000 
      4 C11        19.4140  -15.4450   23.4620 C.ar      1 CCR5555     0.0000 
      5 C12        19.4340  -14.5840   24.6170 C.ar      1 CCR5555     0.0000 
      6 C13        20.6120  -13.9010   25.0010 C.ar      1 CCR5555     0.0000 
      7 C14        21.7730  -14.0650   24.2510 C.ar      1 CCR5555     0.0000 
      8 C15        21.7720  -14.9060   23.1130 C.ar      1 CCR5555     0.0000 
      9 C16        20.6100  -15.5960   22.7230 C.ar      1 CCR5555     0.0000 
     10 C17        18.1920  -14.3800   25.4930 C.3       1 CCR5555     0.0000 
     11 C18        20.6750  -12.8300   26.1400 C.3       1 CCR5555     0.0000 
     12 C10        20.8930  -16.6140   21.5850 C.3       1 CCR5555     0.0000 
     13 O11        22.9210  -13.3070   24.6130 O.3       1 CCR5555     0.0000 
     14 C19        24.1050  -13.5560   23.8060 C.3       1 CCR5555     0.0000 
     15 N23        16.7090  -15.4230   23.0390 N.pl3     1 CCR5555     0.0000 
     16 C30        16.2510  -14.9730   21.7550 C.3       1 CCR5555     0.0000 
     17 C35        16.3260  -13.4680   21.5930 C.2       1 CCR5555     0.0000 
     18 O36        16.3580  -12.7580   22.5990 O.2       1 CCR5555     0.0000 
     19 C31        14.7880  -15.4280   21.6480 C.3       1 CCR5555     0.0000 
     20 C32        14.6920  -16.9360   21.8010 C.2       1 CCR5555     0.0000 
     21 O33        15.1570  -17.6200   20.8830 O.co2     1 CCR5555     0.0000 
     22 O34        13.9480  -17.4370   22.6910 O.co2     1 CCR5555     0.0000 
     23 N40        16.1940  -13.0620   20.2910 N.am      1 CCR5555     0.0000 
     24 C41        16.3000  -11.6300   19.9860 C.3       1 CCR5555     0.0000 
     25 C42        17.3350  -11.5850   18.8700 C.2       1 CCR5555     0.0000 
     26 O43        16.8900  -11.4380   17.7330 O.2       1 CCR5555     0.0000 
     27 C44        14.9330  -11.1240   19.4730 C.3       1 CCR5555     0.0000 
     28 C51        13.9630  -11.0940   20.6370 C.ar      1 CCR5555     0.0000 
     29 C52        13.0470  -12.1410   20.8570 C.ar      1 CCR5555     0.0000 
     30 C56        13.9250   -9.9700   21.4760 C.ar      1 CCR5555     0.0000 
     31 C53        12.1010  -12.0470   21.8880 C.ar      1 CCR5555     0.0000 
     32 C55        12.9850   -9.8880   22.5070 C.ar      1 CCR5555     0.0000 
     33 C54        12.0300  -10.9030   22.7340 C.ar      1 CCR5555     0.0000 
     34 C57        11.0010  -10.8220   23.8280 C.ar      1 CCR5555     0.0000 
     35 N59        10.8590   -9.7830   24.6370 N.pl3     1 CCR5555     0.0000 
     36 N58        10.1820  -11.8240   24.0690 N.pl3     1 CCR5555     0.0000 
     37 N60        18.6380  -11.7780   19.1450 N.am      1 CCR5555     0.0000 
     38 C61        19.6720  -11.8640   18.1020 C.3       1 CCR5555     0.0000 
     39 C62        20.3590  -13.2250   18.3180 C.3       1 CCR5555     0.0000 
     40 C63        21.0090  -13.1930   19.7230 C.3       1 CCR5555     0.0000 
     41 C64        19.9090  -13.0180   20.7900 C.3       1 CCR5555     0.0000 
     42 C65        19.1670  -11.6930   20.5280 C.3       1 CCR5555     0.0000 
     43 H          22.6361  -15.0120   22.5650 H         1 CCR5555     0.0000 
     44 H          16.3002  -15.1799   23.9035 H         1 CCR5555     0.0000 
     45 H          16.7906  -15.4502   20.9588 H         1 CCR5555     0.0000 
     46 H          14.3963  -15.1333   20.6781 H         1 CCR5555     0.0000 
     47 H          14.2092  -14.9436   22.4299 H         1 CCR5555     0.0000 
     48 H          16.0267  -13.6994   19.5254 H         1 CCR5555     0.0000 
     49 H          16.6227  -11.0830   20.8024 H         1 CCR5555     0.0000 
     50 H          14.5754  -11.7983   18.7109 H         1 CCR5555     0.0000 
     51 H          15.0577  -10.1314   19.0698 H         1 CCR5555     0.0000 
     52 H          13.0740  -12.9737   20.2598 H         1 CCR5555     0.0000 
     53 H          14.5938   -9.2032   21.3294 H         1 CCR5555     0.0000 
     54 H          11.4359  -12.8204   22.0454 H         1 CCR5555     0.0000 
     55 H          12.9838   -9.0566   23.1292 H         1 CCR5555     0.0000 
     56 H          11.5065   -9.0322   24.5067 H         1 CCR5555     0.0000 
     57 H          10.1171   -9.8435   25.3048 H         1 CCR5555     0.0000 
     58 H           9.5064  -11.6761   24.7913 H         1 CCR5555     0.0000 
     59 H          10.3101  -12.6417   23.5078 H         1 CCR5555     0.0000 
     60 H          20.4055  -11.0905   18.2155 H         1 CCR5555     0.0000 
     61 H          19.2386  -11.8531   17.1215 H         1 CCR5555     0.0000 
     62 H          21.1211  -13.3639   17.5796 H         1 CCR5555     0.0000 
     63 H          19.6277  -14.0057   18.2851 H         1 CCR5555     0.0000 
     64 H          21.6948  -12.3624   19.7765 H         1 CCR5555     0.0000 
     65 H          21.5283  -14.1227   19.8936 H         1 CCR5555     0.0000 
     66 H          20.3623  -12.9863   21.7669 H         1 CCR5555     0.0000 
     67 H          19.2124  -13.8370   20.7210 H         1 CCR5555     0.0000 
     68 H          18.3683  -11.6007   21.2401 H         1 CCR5555     0.0000 
     69 H          19.8666  -10.8837   20.6229 H         1 CCR5555     0.0000 
     70 H          18.3719  -13.7551   26.2527 H         1 CCR5555     0.0000 
     71 H          17.4292  -13.9965   24.9723 H         1 CCR5555     0.0000 
     72 H          17.8725  -15.2402   25.8904 H         1 CCR5555     0.0000 
     73 H          21.5993  -12.4670   26.2578 H         1 CCR5555     0.0000 
     74 H          20.0763  -12.0516   25.9514 H         1 CCR5555     0.0000 
     75 H          20.3943  -13.2088   27.0219 H         1 CCR5555     0.0000 
     76 H          21.8211  -16.5198   21.2248 H         1 CCR5555     0.0000 
     77 H          20.7947  -17.5584   21.8986 H         1 CCR5555     0.0000 
     78 H          20.2662  -16.4941   20.8151 H         1 CCR5555     0.0000 
     79 H          24.8803  -12.9981   24.1021 H         1 CCR5555     0.0000 
     80 H          24.3951  -14.5116   23.8571 H         1 CCR5555     0.0000 
     81 H          23.9467  -13.3490   22.8406 H         1 CCR5555     0.0000 
@<TRIPOS>BOND
     1    2    1 2    
     2    3    1 2    
     3    4    1 1    
     4   15    1 1    
     5    5    4 ar   
     6    9    4 ar   
     7    6    5 ar   
     8   10    5 1    
     9    7    6 ar   
    10   11    6 1    
    11    8    7 ar   
    12   13    7 1    
    13    9    8 ar   
    14   43    8 1    
    15   12    9 1    
    16   70   10 1    
    17   71   10 1    
    18   72   10 1    
    19   73   11 1    
    20   74   11 1    
    21   75   11 1    
    22   76   12 1    
    23   77   12 1    
    24   78   12 1    
    25   14   13 1    
    26   79   14 1    
    27   80   14 1    
    28   81   14 1    
    29   16   15 1    
    30   44   15 1    
    31   17   16 1    
    32   19   16 1    
    33   45   16 1    
    34   18   17 2    
    35   23   17 am   
    36   20   19 1    
    37   46   19 1    
    38   47   19 1    
    39   21   20 ar   
    40   22   20 ar   
    41   24   23 1    
    42   48   23 1    
    43   25   24 1    
    44   27   24 1    
    45   49   24 1    
    46   26   25 2    
    47   37   25 am   
    48   28   27 1    
    49   50   27 1    
    50   51   27 1    
    51   29   28 ar   
    52   30   28 ar   
    53   31   29 ar   
    54   52   29 1    
    55   32   30 ar   
    56   53   30 1    
    57   33   31 ar   
    58   54   31 1    
    59   33   32 ar   
    60   55   32 1    
    61   34   33 1    
    62   35   34 ar   
    63   36   34 ar   
    64   56   35 1    
    65   57   35 1    
    66   58   36 1    
    67   59   36 1    
    68   38   37 1    
    69   42   37 1    
    70   39   38 1    
    71   60   38 1    
    72   61   38 1    
    73   40   39 1    
    74   62   39 1    
    75   63   39 1    
    76   41   40 1    
    77   64   40 1    
    78   65   40 1    
    79   42   41 1    
    80   66   41 1    
    81   67   41 1    
    82   68   42 1    
    83   69   42 1    
@<TRIPOS>SUBSTRUCTURE
     1 CCR5555     1 GROUP   
@<TRIPOS>SET

