#    Name: 3n0y_APC_2_INTS_M
#    Modification time : Tue Mar 25 00:29:58 2014

@<TRIPOS>MOLECULE
3n0y_APC_2_INTS_M
   83     0    15     0     0
SMALL
NO_CHARGES


@<TRIPOS>ATOM
      1 NZ         16.6060   -3.2720   40.7635 N.4       3 LYC4        0.0000 
      2 NZ         17.1230   -4.8610   41.7040 N.4      13 LYL4        0.0000 
      3 NZ         16.0890   -1.6830   39.8230 N.4       8 LYP4        0.0000 
      4 Zn         16.4635   -4.4850   42.4470 Zn        4 ZIC7        0.0000 
      5 Zn         17.1230   -4.8610   41.7040 Zn       14 ZIL7        0.0000 
      6 Zn         15.8040   -4.1090   43.1900 Zn        9 ZIP7        0.0000 
      7 NZ         18.2015   -7.1315   43.5855 N.4       3 LYC4        0.0000 
      8 NZ         18.1350   -7.1450   42.1460 N.4      13 LYL4        0.0000 
      9 NZ         18.2680   -7.1180   45.0250 N.4       8 LYP4        0.0000 
     10 N          18.2015   -7.1315   43.5855 N.am      2 SEC2        0.0000 
     11 N          18.1350   -7.1450   42.1460 N.am     12 SEL2        0.0000 
     12 N          18.2680   -7.1180   45.0250 N.am      7 SEP2        0.0000 
     13 N          18.7895   -8.4625   41.9190 N.am      2 SEC2        0.0000 
     14 N          19.4440   -9.7800   41.6920 N.am      7 SEP2        0.0000 
     15 NZ         13.5410   -5.9980   43.6835 N.4       3 LYC4        0.0000 
     16 NZ         14.5690   -5.7230   42.6580 N.4      13 LYL4        0.0000 
     17 NZ         11.2200   -6.0430   44.5760 N.4       8 LYP4        0.0000 
     18 Zn         15.1865   -4.9160   42.9240 Zn        4 ZIC7        0.0000 
     19 Zn         14.5690   -5.7230   42.6580 Zn       14 ZIL7        0.0000 
     20 N          13.5410   -5.9980   43.6835 N.am      2 SEC2        0.0000 
     21 N          14.5690   -5.7230   42.6580 N.am     12 SEL2        0.0000 
     22 N          12.5130   -6.2730   44.7090 N.am      7 SEP2        0.0000 
     23 NZ         12.2365   -8.2430   41.4975 N.4       3 LYC4        0.0000 
     24 NZ         13.4750   -7.4640   41.1540 N.4      13 LYL4        0.0000 
     25 NZ         10.9980   -9.0220   41.8410 N.4       8 LYP4        0.0000 
     26 N          12.2365   -8.2430   41.4975 N.am      2 SEC2        0.0000 
     27 N          13.4750   -7.4640   41.1540 N.am     12 SEL2        0.0000 
     28 N          10.9980   -9.0220   41.8410 N.am      7 SEP2        0.0000 
     29 NZ         15.2200   -2.3795   40.8625 N.4       3 LYC4        0.0000 
     30 NZ         14.3510   -3.0760   41.9020 N.4      13 LYL4        0.0000 
     31 Zn         15.0775   -3.5925   42.5460 Zn        4 ZIC7        0.0000 
     32 Zn         14.3510   -3.0760   41.9020 Zn       14 ZIL7        0.0000 
     33 N          15.2200   -2.3795   40.8625 N.am      2 SEC2        0.0000 
     34 N          14.3510   -3.0760   41.9020 N.am     12 SEL2        0.0000 
     35 N          16.0890   -1.6830   39.8230 N.am      7 SEP2        0.0000 
     36 NZ         11.5160   -5.1310   40.6345 N.4       3 LYC4        0.0000 
     37 NZ         12.0140   -4.0760   41.5570 N.4      13 LYL4        0.0000 
     38 NZ          9.7780   -5.6970   39.7700 N.4       8 LYP4        0.0000 
     39 NZ         11.3780   -4.7150   42.5440 N.4       3 LYC4        0.0000 
     40 N          10.7840   -4.3000   40.9650 N.am      2 SEC2        0.0000 
     41 N          12.0140   -4.0760   41.5570 N.am     12 SEL2        0.0000 
     42 N           9.5540   -4.5240   40.3730 N.am      7 SEP2        0.0000 
     43 N          11.5160   -5.1310   40.6345 N.am      2 SEC2        0.0000 
     44 N          11.0180   -6.1860   39.7120 N.am      7 SEP2        0.0000 
     45 N          11.3780   -4.7150   42.5440 N.am      2 SEC2        0.0000 
     46 N          10.7420   -5.3540   43.5310 N.am      7 SEP2        0.0000 
     47 CA         15.0840   -3.7040   39.3035 C.3       5 GLC5        0.0000 
     48 CA         14.0420   -5.0690   40.1380 C.3      15 GLL5        0.0000 
     49 CA         16.1260   -2.3390   38.4690 C.3      10 GLP5        0.0000 
     50 CA         10.8480   -2.6230   38.1735 C.3       5 GLC5        0.0000 
     51 CA         11.8090   -1.9330   39.5630 C.3      15 GLL5        0.0000 
     52 CA          9.8870   -3.3130   36.7840 C.3      10 GLP5        0.0000 
     53 CA         13.9675   -2.1360   39.0160 C.3       5 GLC5        0.0000 
     54 CA         12.0485   -1.0020   37.6400 C.3       5 GLC5        0.0000 
     55 CA         11.7320   -0.4210   39.7670 C.3      15 GLL5        0.0000 
     56 CA         12.3650   -1.5830   35.5130 C.3      10 GLP5        0.0000 
     57 CA         12.9700    0.4425   38.5605 C.3       5 GLC5        0.0000 
     58 CA         14.2080    1.3060   37.3540 C.3      10 GLP5        0.0000 
     59 O          13.8940    0.6740   41.6350 O.2       1 ALC1        0.0000 
     60 O          12.6690   -0.0440   42.0150 O.2      11 ALL1        0.0000 
     61 O          15.1190    1.3920   41.2550 O.2       6 ALP1        0.0000 
     62 CA          9.4190    1.3105   37.8560 C.3       5 GLC5        0.0000 
     63 CA          9.9760    1.1760   39.8860 C.3      15 GLL5        0.0000 
     64 CA          8.8620    1.4450   35.8260 C.3      10 GLP5        0.0000 
     65 CA          4.9370    0.4615   38.6100 C.3       5 GLC5        0.0000 
     66 CA          4.9630    1.3930   40.3030 C.3      15 GLL5        0.0000 
     67 CA          4.9110   -0.4700   36.9170 C.3      10 GLP5        0.0000 
     68 CA          6.4625    4.0995   40.0250 C.3       5 GLC5        0.0000 
     69 CA          5.8920    2.9910   38.8240 C.3      15 GLL5        0.0000 
     70 CA          7.0330    5.2080   41.2260 C.3      10 GLP5        0.0000 
     71 CA          5.4015    1.2605   37.8705 C.3       5 GLC5        0.0000 
     72 CA          7.3770    2.2180   37.3250 C.3       5 GLC5        0.0000 
     73 CA          8.1605    1.5070   37.8420 C.3       5 GLC5        0.0000 
     74 CA          7.4590    1.5690   39.8580 C.3      15 GLL5        0.0000 
     75 CA          9.1270    2.3442   41.7260 C.3       5 GLC5        0.0000 
     76 CA          7.9110    3.5200   42.9000 C.3      10 GLP5        0.0000 
     77 CA         10.9650    3.1063   40.6460 C.3       5 GLC5        0.0000 
     78 CA         10.7100    1.1610   41.2180 C.3      15 GLL5        0.0000 
     79 CA         11.5870    5.0440   40.7400 C.3      10 GLP5        0.0000 
     80 CA          6.4592   -0.4485   39.3520 C.3       5 GLC5        0.0000 
     81 CA          6.0220   -2.1300   38.5000 C.3      10 GLP5        0.0000 
     82 CA          6.7934    3.2825   40.6841 C.3       5 GLC5        0.0000 
     83 CA          6.3340    0.8970   40.5500 C.3      15 GLL5        0.0000 
@<TRIPOS>BOND
@<TRIPOS>SUBSTRUCTURE
     1 ALC1       59 GROUP        1 X    ALC  0     ROOT ALC X 1
     2 SEC2       10 GROUP        1 X    SEC  0     **** SEC X 2
     3 LYC4        1 GROUP        1 X    LYC  0     **** LYC X 4
     4 ZIC7        4 GROUP        1 X    ZIC  0     **** ZIC X 5
     5 GLC5       47 GROUP        1 X    GLC  0     **** GLC X 6
     6 ALP1       61 GROUP        1 Y    ALP  0     ROOT ALP Y 8
     7 SEP2       12 GROUP        1 Y    SEP  0     **** SEP Y 9
     8 LYP4        3 GROUP        1 Y    LYP  0     **** LYP Y 11
     9 ZIP7        6 GROUP        1 Y    ZIP  0     **** ZIP Y 12
    10 GLP5       49 GROUP        1 Y    GLP  0     **** GLP Y 13
    11 ALL1       60 GROUP        1 Z    ALL  0     ROOT ALL Z 15
    12 SEL2       11 GROUP        1 Z    SEL  0     **** SEL Z 16
    13 LYL4        2 GROUP        1 Z    LYL  0     **** LYL Z 18
    14 ZIL7        5 GROUP        1 Z    ZIL  0     **** ZIL Z 19
    15 GLL5       48 GROUP        1 Z    GLL  0     **** GLL Z 20
@<TRIPOS>SET

