#    Name: 3n0y_APC_2_ligand
#    Modification time : Tue Mar 25 00:29:58 2014

@<TRIPOS>MOLECULE
3n0y_APC_2_ligand
   45    47     1     0     0
SMALL
NO_CHARGES


@<TRIPOS>ATOM
      1 PG         17.3790   -6.2610   41.1900 P.3       1 APC181      0.0000 
      2 O1G        17.1230   -4.8610   41.7040 O.co2     1 APC181      0.0000 
      3 O2G        17.9480   -6.2070   39.7750 O.co2     1 APC181      0.0000 
      4 O3G        18.1350   -7.1450   42.1460 O.co2     1 APC181      0.0000 
      5 PB         14.4880   -6.3850   41.3250 P.3       1 APC181      0.0000 
      6 O1B        14.5690   -5.7230   42.6580 O.co2     1 APC181      0.0000 
      7 O2B        13.4750   -7.4640   41.1540 O.co2     1 APC181      0.0000 
      8 O3B        15.9350   -7.0140   40.9810 O.3       1 APC181      0.0000 
      9 PA         13.3460   -3.6440   40.9890 P.3       1 APC181      0.0000 
     10 O1A        14.3510   -3.0760   41.9020 O.co2     1 APC181      0.0000 
     11 O2A        12.0140   -4.0760   41.5570 O.co2     1 APC181      0.0000 
     12 C3A        14.0420   -5.0690   40.1380 C.3       1 APC181      0.0000 
     13 O5'        13.0960   -2.4280   39.9570 O.3       1 APC181      0.0000 
     14 C5'        11.8090   -1.9330   39.5630 C.3       1 APC181      0.0000 
     15 C4'        11.7320   -0.4210   39.7670 C.3       1 APC181      0.0000 
     16 O4'        10.5840    0.1330   39.0960 O.3       1 APC181      0.0000 
     17 C3'        11.4750   -0.1370   41.2350 C.3       1 APC181      0.0000 
     18 O3'        12.6690   -0.0440   42.0150 O.3       1 APC181      0.0000 
     19 C2'        10.7100    1.1610   41.2180 C.3       1 APC181      0.0000 
     20 O2'        11.5980    2.2770   41.2710 O.3       1 APC181      0.0000 
     21 C1'         9.9760    1.1760   39.8860 C.3       1 APC181      0.0000 
     22 N9          8.5570    0.9140   40.2540 N.pl3     1 APC181      0.0000 
     23 C8          8.1780   -0.0460   41.1280 C.2       1 APC181      0.0000 
     24 N7          6.8450   -0.0820   41.3220 N.2       1 APC181      0.0000 
     25 C5          6.3340    0.8970   40.5500 C.ar      1 APC181      0.0000 
     26 C6          4.9630    1.3930   40.3030 C.ar      1 APC181      0.0000 
     27 N6          3.9140    0.7860   40.9290 N.pl3     1 APC181      0.0000 
     28 N1          4.8170    2.4400   39.4480 N.ar      1 APC181      0.0000 
     29 C2          5.8920    2.9910   38.8240 C.ar      1 APC181      0.0000 
     30 N3          7.1700    2.5970   39.0210 N.ar      1 APC181      0.0000 
     31 C4          7.4590    1.5690   39.8580 C.ar      1 APC181      0.0000 
     32 H          13.3016   -5.4604   39.5380 H         1 APC181      0.0000 
     33 H          14.9234   -4.7649   39.6998 H         1 APC181      0.0000 
     34 H          11.0028   -2.3923   40.1511 H         1 APC181      0.0000 
     35 H          11.6045   -2.1394   38.5036 H         1 APC181      0.0000 
     36 H          12.6264    0.0399   39.4772 H         1 APC181      0.0000 
     37 H          10.8006   -0.9023   41.5979 H         1 APC181      0.0000 
     38 H           9.9937    1.1583   41.9959 H         1 APC181      0.0000 
     39 H          10.0885    2.1336   39.4678 H         1 APC181      0.0000 
     40 H           8.8178   -0.6595   41.5787 H         1 APC181      0.0000 
     41 H           3.0145    1.1960   40.7781 H         1 APC181      0.0000 
     42 H           4.1367   -0.0156   41.4838 H         1 APC181      0.0000 
     43 H           5.7116    3.7870   38.1336 H         1 APC181      0.0000 
     44 H          13.2810    0.5407   41.4824 H         1 APC181      0.0000 
     45 H          11.0109    3.0798   41.1673 H         1 APC181      0.0000 
@<TRIPOS>BOND
     1    2    1 ar   
     2    3    1 ar   
     3    4    1 ar   
     4    8    1 1    
     5    6    5 ar   
     6    7    5 ar   
     7    8    5 1    
     8   12    5 1    
     9   10    9 ar   
    10   11    9 ar   
    11   12    9 1    
    12   13    9 1    
    13   32   12 1    
    14   33   12 1    
    15   14   13 1    
    16   15   14 1    
    17   34   14 1    
    18   35   14 1    
    19   16   15 1    
    20   17   15 1    
    21   36   15 1    
    22   21   16 1    
    23   18   17 1    
    24   19   17 1    
    25   37   17 1    
    26   44   18 1    
    27   20   19 1    
    28   21   19 1    
    29   38   19 1    
    30   45   20 1    
    31   22   21 1    
    32   39   21 1    
    33   23   22 1    
    34   31   22 1    
    35   24   23 2    
    36   40   23 1    
    37   25   24 1    
    38   26   25 ar   
    39   31   25 ar   
    40   27   26 1    
    41   28   26 ar   
    42   41   27 1    
    43   42   27 1    
    44   29   28 ar   
    45   30   29 ar   
    46   43   29 1    
    47   31   30 ar   
@<TRIPOS>SUBSTRUCTURE
     1 APC181      1 GROUP   
@<TRIPOS>SET

