#    Name: 1MLZ_1_CAVITY_N1_6.mol2
#    Modification time : Mon Mar 10 17:01:35 2014

@<TRIPOS>MOLECULE
1MLZ_1_CAVITY_N1_6.mol2
  160     0     7     0     0
SMALL
NO_CHARGES


@<TRIPOS>ATOM
      1 CA         48.2111   -0.2026    5.2968 C.3       6 GLY6        0.0000 
      2 CA         49.8903   -1.2138    4.4858 C.3       6 GLY6        0.0000 
      3 CZ         48.5965   -1.6406    5.1135 C.ar      5 PHE5        0.0000 
      4 CZ         47.6880   -3.5054    5.5577 C.ar      5 PHE5        0.0000 
      5 CA         50.1588    0.2273    6.0192 C.3       6 GLY6        0.0000 
      6 CZ         48.8650   -0.1995    6.6468 C.ar      5 PHE5        0.0000 
      7 N          50.5442   -1.2108    5.8358 N.2       2 ALA2        0.0000 
      8 CZ         49.2504   -1.6375    6.4634 C.ar      5 PHE5        0.0000 
      9 N          50.9295   -2.6488    5.6525 N.2       2 ALA2        0.0000 
     10 CZ         49.6357   -3.0755    6.2801 C.ar      5 PHE5        0.0000 
     11 CZ         48.3419   -3.5023    6.9077 C.ar      5 PHE5        0.0000 
     12 CZ         48.7273   -4.9403    6.7243 C.ar      5 PHE5        0.0000 
     13 CZ         47.4334   -5.3670    7.3520 C.ar      5 PHE5        0.0000 
     14 CZ         44.8458   -6.2205    8.6072 C.ar      5 PHE5        0.0000 
     15 O          46.1605    1.8261    9.6188 O.2       2 ALA2        0.0000 
     16 OG         44.8667    1.3993   10.2464 O.2       1 SER1        0.0000 
     17 OG         43.5728    0.9726   10.8740 O.2       1 SER1        0.0000 
     18 O          47.8397    0.8148    8.8078 O.2       2 ALA2        0.0000 
     19 CZ         46.5458    0.3881    9.4354 C.ar      5 PHE5        0.0000 
     20 CZ         43.9582   -0.4654   10.6906 C.ar      5 PHE5        0.0000 
     21 O          49.5188   -0.1964    7.9968 O.2       2 ALA2        0.0000 
     22 CZ         48.2250   -0.6232    8.6244 C.ar      5 PHE5        0.0000 
     23 CZ         46.9312   -1.0499    9.2520 C.ar      5 PHE5        0.0000 
     24 N          51.1980   -1.2077    7.1858 N.2       2 ALA2        0.0000 
     25 N          49.9042   -1.6344    7.8134 N.2       2 ALA2        0.0000 
     26 CZ         48.6104   -2.0612    8.4411 C.ar      5 PHE5        0.0000 
     27 N          50.2896   -3.0724    7.6301 N.2       2 ALA2        0.0000 
     28 CZ         48.9957   -3.4992    8.2577 C.ar      5 PHE5        0.0000 
     29 N          50.6749   -4.5104    7.4467 N.2       2 ALA2        0.0000 
     30 CZ         49.3811   -4.9372    8.0743 C.ar      5 PHE5        0.0000 
     31 CZ         48.0873   -5.3640    8.7019 C.ar      5 PHE5        0.0000 
     32 CZ         46.7935   -5.7907    9.3296 C.ar      5 PHE5        0.0000 
     33 CZ         45.4996   -6.2175    9.9572 C.ar      5 PHE5        0.0000 
     34 DU         49.7665   -6.3752    7.8910 H         7 CUB7        0.0000 
     35 DU         48.4726   -6.8020    8.5186 H         7 CUB7        0.0000 
     36 N          47.1788   -7.2287    9.1462 N.2       2 ALA2        0.0000 
     37 O          46.8143    1.8292   10.9688 O.2       2 ALA2        0.0000 
     38 O          45.5205    1.4024   11.5964 O.2       2 ALA2        0.0000 
     39 CZ         44.2267    0.9757   12.2240 C.ar      5 PHE5        0.0000 
     40 CZ         48.4935    0.8179   10.1578 C.ar      5 PHE5        0.0000 
     41 CZ         47.1997    0.3912   10.7854 C.ar      5 PHE5        0.0000 
     42 DU         45.9059   -0.0356   11.4130 H         7 CUB7        0.0000 
     43 CA         44.6120   -0.4623   12.0406 C.3       6 GLY6        0.0000 
     44 O          50.1727   -0.1933    9.3468 O.2       2 ALA2        0.0000 
     45 DU         48.8789   -0.6201    9.9744 H         7 CUB7        0.0000 
     46 CZ         47.5850   -1.0468   10.6020 C.ar      5 PHE5        0.0000 
     47 CZ         46.2912   -1.4736   11.2296 C.ar      5 PHE5        0.0000 
     48 CZ         44.9974   -1.9003   11.8573 C.ar      5 PHE5        0.0000 
     49 CA         50.5581   -1.6313    9.1634 C.3       6 GLY6        0.0000 
     50 CA         49.2642   -2.0581    9.7910 C.3       6 GLY6        0.0000 
     51 CZ         47.9704   -2.4849   10.4187 C.ar      5 PHE5        0.0000 
     52 CZ         46.6766   -2.9116   11.0463 C.ar      5 PHE5        0.0000 
     53 CZ         45.3828   -3.3384   11.6739 C.ar      5 PHE5        0.0000 
     54 CA         49.6496   -3.4961    9.6077 C.3       6 GLY6        0.0000 
     55 CZ         48.3558   -3.9229   10.2353 C.ar      5 PHE5        0.0000 
     56 CZ         47.0619   -4.3496   10.8629 C.ar      5 PHE5        0.0000 
     57 CZ         45.7681   -4.7764   11.4905 C.ar      5 PHE5        0.0000 
     58 CZ         50.0350   -4.9341    9.4243 C.ar      5 PHE5        0.0000 
     59 CZ         48.7411   -5.3609   10.0519 C.ar      5 PHE5        0.0000 
     60 CZ         47.4473   -5.7876   10.6796 C.ar      5 PHE5        0.0000 
     61 CZ         46.1535   -6.2144   11.3072 C.ar      5 PHE5        0.0000 
     62 CA         50.4203   -6.3721    9.2410 C.3       6 GLY6        0.0000 
     63 CA         49.1265   -6.7989    9.8686 C.3       6 GLY6        0.0000 
     64 N          47.8327   -7.2256   10.4962 N.2       2 ALA2        0.0000 
     65 O          46.1744    1.4055   12.9464 O.2       2 ALA2        0.0000 
     66 CZ         44.8805    0.9788   13.5740 C.ar      5 PHE5        0.0000 
     67 CZ         49.1474    0.8210   11.5078 C.ar      5 PHE5        0.0000 
     68 CZ         47.8535    0.3943   12.1354 C.ar      5 PHE5        0.0000 
     69 DU         46.5597   -0.0325   12.7630 H         7 CUB7        0.0000 
     70 CA         45.2659   -0.4593   13.3906 C.3       6 GLY6        0.0000 
     71 CZ         49.5327   -0.6170   11.3244 C.ar      5 PHE5        0.0000 
     72 CZ         48.2389   -1.0438   11.9520 C.ar      5 PHE5        0.0000 
     73 DU         46.9451   -1.4705   12.5796 H         7 CUB7        0.0000 
     74 CA         45.6513   -1.8973   13.2073 C.3       6 GLY6        0.0000 
     75 CZ         48.6243   -2.4818   11.7687 C.ar      5 PHE5        0.0000 
     76 DU         47.3304   -2.9085   12.3963 H         7 CUB7        0.0000 
     77 CA         46.0366   -3.3353   13.0239 C.3       6 GLY6        0.0000 
     78 CZ         49.0096   -3.9198   11.5853 C.ar      5 PHE5        0.0000 
     79 CZ         47.7158   -4.3465   12.2129 C.ar      5 PHE5        0.0000 
     80 CA         46.4220   -4.7733   12.8405 C.3       6 GLY6        0.0000 
     81 CA         45.1282   -5.2000   13.4682 C.3       6 GLY6        0.0000 
     82 CZ         49.3950   -5.3578   11.4019 C.ar      5 PHE5        0.0000 
     83 CZ         48.1012   -5.7845   12.0295 C.ar      5 PHE5        0.0000 
     84 DU         46.8073   -6.2113   12.6572 H         7 CUB7        0.0000 
     85 CZ         45.5135   -6.6380   13.2848 C.ar      5 PHE5        0.0000 
     86 CZ         49.7803   -6.7958   11.2186 C.ar      5 PHE5        0.0000 
     87 CZ         45.1490    2.4199   15.1073 C.ar      5 PHE5        0.0000 
     88 CZ         48.1220    1.8353   13.6687 C.ar      5 PHE5        0.0000 
     89 CZ         46.8282    1.4086   14.2964 C.ar      5 PHE5        0.0000 
     90 CZ         45.5344    0.9818   14.9240 C.ar      5 PHE5        0.0000 
     91 CZ         48.5074    0.3973   13.4854 C.ar      5 PHE5        0.0000 
     92 DU         47.2136   -0.0294   14.1130 H         7 CUB7        0.0000 
     93 CA         45.9197   -0.4562   14.7406 C.3       6 GLY6        0.0000 
     94 CA         44.6259   -0.8829   15.3682 C.3       6 GLY6        0.0000 
     95 CZ         50.1866   -0.6139   12.6744 C.ar      5 PHE5        0.0000 
     96 CZ         48.8927   -1.0407   13.3020 C.ar      5 PHE5        0.0000 
     97 CZ         47.5989   -1.4674   13.9296 C.ar      5 PHE5        0.0000 
     98 CA         46.3051   -1.8942   14.5572 C.3       6 GLY6        0.0000 
     99 CZ         47.9843   -2.9054   13.7463 C.ar      5 PHE5        0.0000 
    100 CZ         46.6905   -3.3322   14.3739 C.ar      5 PHE5        0.0000 
    101 CZ         48.3697   -4.3435   13.5629 C.ar      5 PHE5        0.0000 
    102 CZ         47.0758   -4.7702   14.1905 C.ar      5 PHE5        0.0000 
    103 CZ         48.7550   -5.7815   13.3795 C.ar      5 PHE5        0.0000 
    104 CZ         47.4612   -6.2082   14.0072 C.ar      5 PHE5        0.0000 
    105 CZ         47.0967    2.8497   15.8297 C.ar      5 PHE5        0.0000 
    106 CA         45.8029    2.4229   16.4573 C.3       6 GLY6        0.0000 
    107 CZ         48.7759    1.8384   15.0187 C.ar      5 PHE5        0.0000 
    108 OG         47.4821    1.4117   15.6463 O.2       1 SER1        0.0000 
    109 OG         46.1882    0.9849   16.2740 O.2       1 SER1        0.0000 
    110 CZ         44.8944    0.5582   16.9016 C.ar      5 PHE5        0.0000 
    111 CZ         43.6006    0.1314   17.5292 C.ar      5 PHE5        0.0000 
    112 CZ         42.3068   -0.2953   18.1568 C.ar      5 PHE5        0.0000 
    113 CA         41.0129   -0.7221   18.7844 C.3       6 GLY6        0.0000 
    114 NZ         39.7191   -1.1488   19.4121 N.2       4 LYS4        0.0000 
    115 N          50.4551    0.8272   14.2077 N.2       2 ALA2        0.0000 
    116 N          49.1612    0.4004   14.8354 N.2       2 ALA2        0.0000 
    117 N          47.8674   -0.0263   15.4630 N.2       2 ALA2        0.0000 
    118 CZ         46.5736   -0.4531   16.0906 C.ar      5 PHE5        0.0000 
    119 CZ         45.2798   -0.8798   16.7182 C.ar      5 PHE5        0.0000 
    120 CZ         43.9860   -1.3066   17.3458 C.ar      5 PHE5        0.0000 
    121 CZ         42.6921   -1.7333   17.9735 C.ar      5 PHE5        0.0000 
    122 NZ         41.3983   -2.1601   18.6011 N.2       4 LYS4        0.0000 
    123 N          48.2528   -1.4643   15.2796 N.2       2 ALA2        0.0000 
    124 CZ         46.9590   -1.8911   15.9072 C.ar      5 PHE5        0.0000 
    125 CZ         48.6381   -2.9024   15.0962 C.ar      5 PHE5        0.0000 
    126 N          49.4297    1.8415   16.3687 N.2       2 ALA2        0.0000 
    127 OG         48.1359    1.4148   16.9963 O.2       1 SER1        0.0000 
    128 OG         46.8421    0.9880   17.6240 O.2       1 SER1        0.0000 
    129 OD1        45.5483    0.5613   18.2516 O.3       3 ASP3        0.0000 
    130 OD1        44.2544    0.1345   18.8792 O.3       3 ASP3        0.0000 
    131 OD1        42.9606   -0.2923   19.5068 O.3       3 ASP3        0.0000 
    132 O          41.6668   -0.7190   20.1344 O.2       2 ALA2        0.0000 
    133 NZ         40.3730   -1.1458   20.7621 N.2       4 LYS4        0.0000 
    134 N          48.5213   -0.0233   16.8130 N.2       2 ALA2        0.0000 
    135 CZ         47.2274   -0.4500   17.4406 C.ar      5 PHE5        0.0000 
    136 CZ         45.9336   -0.8768   18.0682 C.ar      5 PHE5        0.0000 
    137 CZ         44.6398   -1.3035   18.6958 C.ar      5 PHE5        0.0000 
    138 CZ         43.3460   -1.7303   19.3235 C.ar      5 PHE5        0.0000 
    139 N          42.0522   -2.1570   19.9511 N.2       2 ALA2        0.0000 
    140 N          48.9066   -1.4613   16.6296 N.2       2 ALA2        0.0000 
    141 CA         43.6145   -0.2892   20.8568 C.3       6 GLY6        0.0000 
    142 CA         42.3206   -0.7159   21.4844 C.3       6 GLY6        0.0000 
    143 N          49.1751   -0.0202   18.1630 N.2       2 ALA2        0.0000 
    144 OG         47.8813   -0.4469   18.7906 O.2       1 SER1        0.0000 
    145 CZ         46.5875   -0.8737   19.4182 C.ar      5 PHE5        0.0000 
    146 CZ         45.2937   -1.3004   20.0458 C.ar      5 PHE5        0.0000 
    147 CZ         43.9998   -1.7272   20.6734 C.ar      5 PHE5        0.0000 
    148 NZ         42.7060   -2.1539   21.3011 N.2       4 LYS4        0.0000 
    149 O          44.3852   -3.1652   20.4901 O.2       2 ALA2        0.0000 
    150 OD1        46.8560    0.5674   20.9515 O.3       3 ASP3        0.0000 
    151 OD1        45.5621    0.1407   21.5792 O.3       3 ASP3        0.0000 
    152 O          48.5351   -0.4438   20.1406 O.2       2 ALA2        0.0000 
    153 OG         47.2413   -0.8706   20.7682 O.2       1 SER1        0.0000 
    154 O          45.9475   -1.2973   21.3958 O.2       2 ALA2        0.0000 
    155 CA         44.6537   -1.7241   22.0234 C.3       6 GLY6        0.0000 
    156 OG         48.9205   -1.8819   19.9572 O.2       1 SER1        0.0000 
    157 OG         47.6267   -2.3086   20.5848 O.2       1 SER1        0.0000 
    158 CA         46.3329   -2.7354   21.2124 C.3       6 GLY6        0.0000 
    159 CA         47.5098    0.5705   22.3015 C.3       6 GLY6        0.0000 
    160 O          47.8952   -0.8675   22.1182 O.2       2 ALA2        0.0000 
@<TRIPOS>BOND
@<TRIPOS>SUBSTRUCTURE
     1 SER1       16 GROUP   
     2 ALA2        7 GROUP   
     3 ASP3      129 GROUP   
     4 LYS4      114 GROUP   
     5 PHE5        3 GROUP   
     6 GLY6        1 GROUP   
     7 CUB7       34 GROUP   
@<TRIPOS>SET

