#    Name: 1mlz_TZA_1_ligand
#    Modification time : Mon Apr  7 14:41:36 2014

@<TRIPOS>MOLECULE
1mlz_TZA_1_ligand
   31    31     1     0     0
SMALL
NO_CHARGES


@<TRIPOS>ATOM
      1 NH         44.8370   -0.9140   17.2400 N.4       1 TZA531      0.0000 
      2 CZ         45.4430   -0.5580   16.0940 C.3       1 TZA531      0.0000 
      3 CE2        45.0610    0.6180   15.4520 C.2       1 TZA531      0.0000 
      4 CD2        45.6870    1.0000   14.2600 C.2       1 TZA531      0.0000 
      5 CE1        46.4480   -1.3550   15.5740 C.2       1 TZA531      0.0000 
      6 CD1        47.0710   -0.9860   14.4020 C.2       1 TZA531      0.0000 
      7 CG         46.7370    0.2090   13.7760 C.3       1 TZA531      0.0000 
      8 CX         47.2770    0.3370   12.4250 C.3       1 TZA531      0.0000 
      9 CB         46.4170   -0.5160   11.4650 C.3       1 TZA531      0.0000 
     10 CA         46.8760   -0.5240    9.9970 C.3       1 TZA531      0.0000 
     11 N          48.0450   -1.3860   10.0140 N.4       1 TZA531      0.0000 
     12 C          47.2170    0.8360    9.4750 C.2       1 TZA531      0.0000 
     13 O          46.3650    1.6840    9.3710 O.co2     1 TZA531      0.0000 
     14 O2         48.3550    1.1000    9.1370 O.co2     1 TZA531      0.0000 
     15 H          44.4612   -1.2928   15.3341 H         1 TZA531      0.0000 
     16 H          44.3206    1.2063   15.8511 H         1 TZA531      0.0000 
     17 H          45.3883    1.8288   13.7585 H         1 TZA531      0.0000 
     18 H          46.7259   -2.2170   16.0618 H         1 TZA531      0.0000 
     19 H          47.7905   -1.5966   13.9822 H         1 TZA531      0.0000 
     20 H          47.7354    0.9188   14.3474 H         1 TZA531      0.0000 
     21 H          48.2990   -0.0262   12.3710 H         1 TZA531      0.0000 
     22 H          47.2422    1.3662   12.0805 H         1 TZA531      0.0000 
     23 H          45.3740   -0.1509   11.5101 H         1 TZA531      0.0000 
     24 H          46.4013   -1.5568   11.8389 H         1 TZA531      0.0000 
     25 H          46.0998   -0.9782    9.4159 H         1 TZA531      0.0000 
     26 H          45.1971   -1.7752   17.5986 H         1 TZA531      0.0000 
     27 H          44.9594   -0.2250   17.9544 H         1 TZA531      0.0000 
     28 H          43.8522   -1.0368   17.1168 H         1 TZA531      0.0000 
     29 H          48.5534   -1.3393    9.1542 H         1 TZA531      0.0000 
     30 H          48.6806   -1.1355   10.7443 H         1 TZA531      0.0000 
     31 H          47.7977   -2.3444   10.1566 H         1 TZA531      0.0000 
@<TRIPOS>BOND
     1    2    1 1    
     2   26    1 1    
     3   27    1 1    
     4   28    1 1    
     5    3    2 1    
     6    5    2 1    
     7   15    2 1    
     8    4    3 2    
     9   16    3 1    
    10    7    4 1    
    11   17    4 1    
    12    6    5 2    
    13   18    5 1    
    14    7    6 1    
    15   19    6 1    
    16    8    7 1    
    17   20    7 1    
    18    9    8 1    
    19   21    8 1    
    20   22    8 1    
    21   10    9 1    
    22   23    9 1    
    23   24    9 1    
    24   11   10 1    
    25   12   10 1    
    26   25   10 1    
    27   29   11 1    
    28   30   11 1    
    29   31   11 1    
    30   13   12 ar   
    31   14   12 ar   
@<TRIPOS>SUBSTRUCTURE
     1 TZA531      1 GROUP   
@<TRIPOS>SET

