#    Name: 1od1_0QS_1_INTS_M
#    Modification time : Mon Mar 24 19:55:06 2014

@<TRIPOS>MOLECULE
1od1_0QS_1_INTS_M
  107     0     9     0     0
SMALL
NO_CHARGES


@<TRIPOS>ATOM
      1 CA         30.5055   45.0560   -4.2380 C.3       3 GLC5        0.0000 
      2 CA         31.3740   44.2210   -5.6910 C.3       9 GLL5        0.0000 
      3 CA         29.6370   45.8910   -2.7850 C.3       6 GLP5        0.0000 
      4 CA         29.6920   43.3720   -5.1225 C.3       3 GLC5        0.0000 
      5 CA         28.0100   42.5230   -4.5540 C.3       6 GLP5        0.0000 
      6 N          31.4270   44.3500   -0.9420 N.am      2 SEC2        0.0000 
      7 N          32.7710   43.7410   -1.3560 N.am      8 SEL2        0.0000 
      8 N          30.0830   44.9590   -0.5280 N.am      5 SEP2        0.0000 
      9 O          36.3020   43.2190   -1.4200 O.2       1 ALC1        0.0000 
     10 O          34.8820   43.0890   -0.9040 O.2       7 ALL1        0.0000 
     11 O          37.7220   43.3490   -1.9360 O.2       4 ALP1        0.0000 
     12 CA         32.6020   42.4020    1.0160 C.3       3 GLC5        0.0000 
     13 CA         34.4710   42.1040    0.1060 C.3       9 GLL5        0.0000 
     14 CA         30.7330   42.7000    1.9260 C.3       6 GLP5        0.0000 
     15 N          37.3970   40.5330    0.0700 N.am      2 SEC2        0.0000 
     16 N          36.6080   41.5480    1.0320 N.am      8 SEL2        0.0000 
     17 N          38.1860   39.5180   -0.8920 N.am      5 SEP2        0.0000 
     18 CA         36.0015   38.9090    0.6015 C.3       3 GLC5        0.0000 
     19 CA         34.1310   39.6290    0.1050 C.3       9 GLL5        0.0000 
     20 CA         37.8720   38.1890    1.0980 C.3       6 GLP5        0.0000 
     21 CA         32.1615   38.6145    2.0060 C.3       3 GLC5        0.0000 
     22 CA         33.4540   39.4870    1.2590 C.3       9 GLL5        0.0000 
     23 CA         30.8690   37.7420    2.7530 C.3       6 GLP5        0.0000 
     24 CA         36.0935   37.8680    0.8905 C.3       3 GLC5        0.0000 
     25 CA         34.3150   37.5470    0.6830 C.3       9 GLL5        0.0000 
     26 CA         33.1675   35.8605   -0.0350 C.3       3 GLC5        0.0000 
     27 CA         32.0200   34.1740   -0.7530 C.3       6 GLP5        0.0000 
     28 CA         32.5920   37.6445    1.7180 C.3       3 GLC5        0.0000 
     29 O          34.3115   44.2110    2.2265 O.2       1 ALC1        0.0000 
     30 O          35.2300   42.8640    2.2820 O.2       7 ALL1        0.0000 
     31 O          33.3930   45.5580    2.1710 O.2       4 ALP1        0.0000 
     32 O          33.5780   42.4605    2.3675 O.2       1 ALC1        0.0000 
     33 O          31.9260   42.0570    2.4530 O.2       4 ALP1        0.0000 
     34 CA         34.4575   45.5515    3.8710 C.3       3 GLC5        0.0000 
     35 CA         36.4310   44.5610    3.5680 C.3       9 GLL5        0.0000 
     36 CA         32.4840   46.5420    4.1740 C.3       6 GLP5        0.0000 
     37 CA         38.3215   44.1695    3.4185 C.3       3 GLC5        0.0000 
     38 CA         36.7880   45.3510    2.2830 C.3       9 GLL5        0.0000 
     39 CA         39.8550   42.9880    4.5540 C.3       6 GLP5        0.0000 
     40 CA         39.3160   43.8525    2.5320 C.3       3 GLC5        0.0000 
     41 CA         38.1010   44.9000    1.7170 C.3       9 GLL5        0.0000 
     42 CA         40.5310   42.8050    3.3470 C.3       6 GLP5        0.0000 
     43 CA         40.3310   46.3725    0.7645 C.3       3 GLC5        0.0000 
     44 CA         38.4460   45.7060    0.4550 C.3       9 GLL5        0.0000 
     45 CA         42.2160   47.0390    1.0740 C.3       6 GLP5        0.0000 
     46 CA         40.1110   47.7710    0.7395 C.3       3 GLC5        0.0000 
     47 CA         38.3990   47.2170    0.7380 C.3       9 GLL5        0.0000 
     48 CA         41.8230   48.3250    0.7410 C.3       6 GLP5        0.0000 
     49 N          33.1230   42.3700    5.1515 N.am      2 SEC2        0.0000 
     50 N          34.2800   43.0130    4.9870 N.am      8 SEL2        0.0000 
     51 N          31.9660   41.7270    5.3160 N.am      5 SEP2        0.0000 
     52 O          34.2375   44.1200    5.8955 O.2       1 ALC1        0.0000 
     53 O          34.2800   43.0130    4.9870 O.2       7 ALL1        0.0000 
     54 O          34.1950   45.2270    6.8040 O.2       4 ALP1        0.0000 
     55 O          36.4215   44.0950    6.3295 O.2       1 ALC1        0.0000 
     56 O          36.4180   42.9280    5.8840 O.2       7 ALL1        0.0000 
     57 O          36.4250   45.2620    6.7750 O.2       4 ALP1        0.0000 
     58 CA         34.2055   41.6270    7.4215 C.3       3 GLC5        0.0000 
     59 CA         34.6990   40.7600    5.9760 C.3       9 GLL5        0.0000 
     60 CA         33.7120   42.4940    8.8670 C.3       6 GLP5        0.0000 
     61 N          38.1785   39.6425    3.1620 N.am      2 SEC2        0.0000 
     62 N          37.7180   40.1720    4.4250 N.am      8 SEL2        0.0000 
     63 N          38.6390   39.1130    1.8990 N.am      5 SEP2        0.0000 
     64 CA         38.9805   37.2440   11.5615 C.3       3 GLC5        0.0000 
     65 CA         39.5790   37.2860    9.4090 C.3       9 GLL5        0.0000 
     66 CA         38.3820   37.2020   13.7140 C.3       6 GLP5        0.0000 
     67 CA         43.1395   40.0220   10.6230 C.3       3 GLC5        0.0000 
     68 CA         41.5090   39.0840   10.1790 C.3       9 GLL5        0.0000 
     69 CA         44.7700   40.9600   11.0670 C.3       6 GLP5        0.0000 
     70 CA         36.5160   38.6100    9.0730 C.3       3 GLC5        0.0000 
     71 CA         38.3950   39.0120    8.2760 C.3       9 GLL5        0.0000 
     72 CA         34.6370   38.2080    9.8700 C.3       6 GLP5        0.0000 
     73 CA         38.2715   41.7365    8.0295 C.3       3 GLC5        0.0000 
     74 CA         38.4090   39.8690    7.0360 C.3       9 GLL5        0.0000 
     75 CA         38.1340   43.6040    9.0230 C.3       6 GLP5        0.0000 
     76 CA         39.1320   41.4285    5.7950 C.3       3 GLC5        0.0000 
     77 O          36.4110   40.7360    7.7945 O.2       1 ALC1        0.0000 
     78 O          37.0440   40.1900    6.6230 O.2       7 ALL1        0.0000 
     79 O          35.7780   41.2820    8.9660 O.2       4 ALP1        0.0000 
     80 CA         33.0452   49.5692   -4.3678 C.3       3 GLC5        0.0000 
     81 CA         34.3340   48.3010   -3.1390 C.3       9 GLL5        0.0000 
     82 CA         31.4570   50.2850   -5.2900 C.3       6 GLP5        0.0000 
     83 CA         33.8217   49.9877   -2.0857 C.3       3 GLC5        0.0000 
     84 CA         34.9330   49.4060   -3.7520 C.3       9 GLL5        0.0000 
     85 CA         33.0100   51.1220   -0.7260 C.3       6 GLP5        0.0000 
     86 CA         36.8510   50.6283   -1.9170 C.3       3 GLC5        0.0000 
     87 CA         36.3360   49.6030   -3.7070 C.3       9 GLL5        0.0000 
     88 CA         36.9970   52.1360   -0.4750 C.3       6 GLP5        0.0000 
     89 CA         35.0647   51.3923   -3.7792 C.3       3 GLC5        0.0000 
     90 CA         34.4950   53.2800   -3.8290 C.3       6 GLP5        0.0000 
     91 CA         36.0542   41.2935   -1.5015 C.3       3 GLC5        0.0000 
     92 CA         37.7250   41.1180   -2.7020 C.3       6 GLP5        0.0000 
     93 CA         32.0679   40.8646    0.6139 C.3       3 GLC5        0.0000 
     94 CA         30.3020   41.8700    0.7490 C.3       6 GLP5        0.0000 
     95 CA         37.9679   46.6313    4.0549 C.3       3 GLC5        0.0000 
     96 CA         36.7700   46.7530    2.5780 C.3       9 GLL5        0.0000 
     97 CA         39.2460   47.4080    5.3580 C.3       6 GLP5        0.0000 
     98 CA         38.7133   48.4680    2.6385 C.3       3 GLC5        0.0000 
     99 CA         37.0580   47.6430    1.3380 C.3       9 GLL5        0.0000 
    100 CA         39.6980   49.5060    4.2390 C.3       6 GLP5        0.0000 
    101 CA         37.9114   43.0790    4.3432 C.3       3 GLC5        0.0000 
    102 CA         36.1740   43.0550    3.4160 C.3       9 GLL5        0.0000 
    103 CA         41.6218   41.0442    9.0735 C.3       3 GLC5        0.0000 
    104 CA         40.2180   39.5250    9.6630 C.3       9 GLL5        0.0000 
    105 CA         42.3800   42.7840    8.2260 C.3       6 GLP5        0.0000 
    106 CA         39.9417   39.4678   11.8600 C.3       3 GLC5        0.0000 
    107 CA         39.0200   39.6310   13.7990 C.3       6 GLP5        0.0000 
@<TRIPOS>BOND
@<TRIPOS>SUBSTRUCTURE
     1 ALC1        9 GROUP        1 X    ALC  0     ROOT ALC X 1
     2 SEC2        6 GROUP        1 X    SEC  0     **** SEC X 2
     3 GLC5        1 GROUP        1 X    GLC  0     **** GLC X 6
     4 ALP1       11 GROUP        1 Y    ALP  0     ROOT ALP Y 8
     5 SEP2        8 GROUP        1 Y    SEP  0     **** SEP Y 9
     6 GLP5        3 GROUP        1 Y    GLP  0     **** GLP Y 13
     7 ALL1       10 GROUP        1 Z    ALL  0     ROOT ALL Z 15
     8 SEL2        7 GROUP        1 Z    SEL  0     **** SEL Z 16
     9 GLL5        2 GROUP        1 Z    GLL  0     **** GLL Z 20
@<TRIPOS>SET

