#    Name: 1od1_0QS_1_ligand
#    Modification time : Mon Mar 24 19:55:06 2014

@<TRIPOS>MOLECULE
1od1_0QS_1_ligand
  111   114     1     0     0
SMALL
NO_CHARGES


@<TRIPOS>ATOM
      1 S          34.1140   43.5290   -4.8170 S.o2      1 0QS400      0.0000 
      2 O1S        33.6740   42.3640   -3.9990 O.2       1 0QS400      0.0000 
      3 O2S        35.5470   43.6870   -5.1950 O.2       1 0QS400      0.0000 
      4 C          32.8560   44.0480   -6.0560 C.3       1 0QS400      0.0000 
      5 C1         33.3390   45.1610   -7.0460 C.3       1 0QS400      0.0000 
      6 C2         31.3740   44.2210   -5.6910 C.3       1 0QS400      0.0000 
      7 C3         32.7290   42.7920   -7.0660 C.3       1 0QS400      0.0000 
      8 N3         33.7280   45.1100   -3.7100 N.pl3     1 0QS400      0.0000 
      9 CA         34.4650   44.8930   -2.5520 C.3       1 0QS400      0.0000 
     10 CB         34.4050   46.2220   -1.6600 C.3       1 0QS400      0.0000 
     11 CG         35.0620   47.3400   -2.4890 C.ar      1 0QS400      0.0000 
     12 CD1        36.4420   47.5200   -2.4520 C.ar      1 0QS400      0.0000 
     13 CD2        34.3340   48.3010   -3.1390 C.ar      1 0QS400      0.0000 
     14 CE1        37.0740   48.6380   -3.0110 C.ar      1 0QS400      0.0000 
     15 CE2        34.9330   49.4060   -3.7520 C.ar      1 0QS400      0.0000 
     16 CZ         36.3360   49.6030   -3.7070 C.ar      1 0QS400      0.0000 
     17 C4         33.9950   43.8090   -1.5720 C.2       1 0QS400      0.0000 
     18 O          32.7710   43.7410   -1.3560 O.2       1 0QS400      0.0000 
     19 N          34.8820   43.0890   -0.9040 N.am      1 0QS400      0.0000 
     20 CA1        34.4710   42.1040    0.1060 C.3       1 0QS400      0.0000 
     21 C5         35.5230   42.1290    1.1990 C.2       1 0QS400      0.0000 
     22 O1         36.6080   41.5480    1.0320 O.2       1 0QS400      0.0000 
     23 CB1        34.2960   40.8340   -0.7080 C.3       1 0QS400      0.0000 
     24 CG1        34.1310   39.6290    0.1050 C.2       1 0QS400      0.0000 
     25 ND1        34.6420   38.4060   -0.2540 N.pl3     1 0QS400      0.0000 
     26 CD21       33.4540   39.4870    1.2590 C.2       1 0QS400      0.0000 
     27 CE11       34.3150   37.5470    0.6830 C.2       1 0QS400      0.0000 
     28 NE2        33.6060   38.1720    1.6100 N.pl3     1 0QS400      0.0000 
     29 N1         35.2300   42.8640    2.2820 N.am      1 0QS400      0.0000 
     30 CA2        36.1740   43.0550    3.4160 C.3       1 0QS400      0.0000 
     31 CB2        36.4310   44.5610    3.5680 C.3       1 0QS400      0.0000 
     32 CG2        36.7880   45.3510    2.2830 C.3       1 0QS400      0.0000 
     33 CD11       38.1010   44.9000    1.7170 C.3       1 0QS400      0.0000 
     34 CD22       36.7700   46.7530    2.5780 C.3       1 0QS400      0.0000 
     35 CE12       38.4460   45.7060    0.4550 C.3       1 0QS400      0.0000 
     36 CE21       37.0580   47.6430    1.3380 C.3       1 0QS400      0.0000 
     37 CZ1        38.3990   47.2170    0.7380 C.3       1 0QS400      0.0000 
     38 CH         35.6330   42.5320    4.7730 C.3       1 0QS400      0.0000 
     39 OH1        34.2800   43.0130    4.9870 O.3       1 0QS400      0.0000 
     40 OH2        36.4180   42.9280    5.8840 O.3       1 0QS400      0.0000 
     41 CM1        35.5540   41.0240    4.9750 C.3       1 0QS400      0.0000 
     42 F1         35.0740   40.3410    3.9630 F         1 0QS400      0.0000 
     43 F2         34.6990   40.7600    5.9760 F         1 0QS400      0.0000 
     44 C6         36.9420   40.4530    5.3290 C.2       1 0QS400      0.0000 
     45 O2         37.7180   40.1720    4.4250 O.2       1 0QS400      0.0000 
     46 O11        41.2600   37.8640   10.8980 O.3       1 0QS400      0.0000 
     47 C21        40.8710   36.8620    9.9270 C.3       1 0QS400      0.0000 
     48 C31        39.5790   37.2860    9.4090 C.3       1 0QS400      0.0000 
     49 N4         39.7340   38.5670    8.6380 N.4       1 0QS400      0.0000 
     50 C51        40.2180   39.5250    9.6630 C.3       1 0QS400      0.0000 
     51 C61        41.5090   39.0840   10.1790 C.3       1 0QS400      0.0000 
     52 C1'        38.3950   39.0120    8.2760 C.3       1 0QS400      0.0000 
     53 C2'        38.4090   39.8690    7.0360 C.3       1 0QS400      0.0000 
     54 N2'        37.0440   40.1900    6.6230 N.am      1 0QS400      0.0000 
     55 H          33.1993   45.6124   -4.1359 H         1 0QS400      0.0000 
     56 H          35.5291   44.7496   -2.7173 H         1 0QS400      0.0000 
     57 H          34.9581   46.0447   -0.7704 H         1 0QS400      0.0000 
     58 H          33.3832   46.4471   -1.4758 H         1 0QS400      0.0000 
     59 H          37.0337   46.7932   -1.9890 H         1 0QS400      0.0000 
     60 H          33.2916   48.2164   -3.1853 H         1 0QS400      0.0000 
     61 H          38.0927   48.7513   -2.9088 H         1 0QS400      0.0000 
     62 H          34.3490   50.0965   -4.2491 H         1 0QS400      0.0000 
     63 H          36.7644   50.3861   -4.1481 H         1 0QS400      0.0000 
     64 H          35.9076   43.1758   -1.0515 H         1 0QS400      0.0000 
     65 H          33.5175   42.4123    0.4941 H         1 0QS400      0.0000 
     66 H          35.1755   40.7295   -1.3771 H         1 0QS400      0.0000 
     67 H          33.4200   40.9707   -1.3760 H         1 0QS400      0.0000 
     68 H          35.1467   38.2441   -1.0592 H         1 0QS400      0.0000 
     69 H          32.9729   40.1434    1.7361 H         1 0QS400      0.0000 
     70 H          34.5538   36.5956    0.6998 H         1 0QS400      0.0000 
     71 H          33.2387   37.7815    2.4228 H         1 0QS400      0.0000 
     72 H          34.3112   43.3498    2.3917 H         1 0QS400      0.0000 
     73 H          37.1144   42.5829    3.2151 H         1 0QS400      0.0000 
     74 H          37.2517   44.7105    4.3058 H         1 0QS400      0.0000 
     75 H          35.5318   45.0323    4.0258 H         1 0QS400      0.0000 
     76 H          35.9977   45.1139    1.5542 H         1 0QS400      0.0000 
     77 H          38.0527   43.8442    1.4532 H         1 0QS400      0.0000 
     78 H          38.8943   45.0439    2.4495 H         1 0QS400      0.0000 
     79 H          37.5229   47.0185    3.3459 H         1 0QS400      0.0000 
     80 H          35.7895   47.0728    2.9823 H         1 0QS400      0.0000 
     81 H          37.7308   45.4675   -0.3283 H         1 0QS400      0.0000 
     82 H          39.4448   45.4367    0.1206 H         1 0QS400      0.0000 
     83 H          37.1082   48.6709    1.6512 H         1 0QS400      0.0000 
     84 H          36.2731   47.4995    0.6165 H         1 0QS400      0.0000 
     85 H          38.5640   47.7579   -0.1961 H         1 0QS400      0.0000 
     86 H          39.2020   47.4727    1.4323 H         1 0QS400      0.0000 
     87 H          40.7851   35.8875   10.3992 H         1 0QS400      0.0000 
     88 H          41.5991   36.8085    9.1227 H         1 0QS400      0.0000 
     89 H          38.8685   37.4501   10.2267 H         1 0QS400      0.0000 
     90 H          39.1584   36.5231    8.7446 H         1 0QS400      0.0000 
     91 H          40.3724   38.4718    7.8640 H         1 0QS400      0.0000 
     92 H          39.4840   39.5883   10.4756 H         1 0QS400      0.0000 
     93 H          40.3071   40.5219    9.2144 H         1 0QS400      0.0000 
     94 H          42.1995   38.9133    9.3554 H         1 0QS400      0.0000 
     95 H          41.9244   39.8434   10.8384 H         1 0QS400      0.0000 
     96 H          37.9451   39.5932    9.0981 H         1 0QS400      0.0000 
     97 H          37.7353   38.1468    8.0961 H         1 0QS400      0.0000 
     98 H          38.9352   39.3283    6.2401 H         1 0QS400      0.0000 
     99 H          38.9730   40.7854    7.2476 H         1 0QS400      0.0000 
    100 H          36.3251   40.1914    7.2915 H         1 0QS400      0.0000 
    101 H          33.6030   45.9969   -6.5649 H         1 0QS400      0.0000 
    102 H          34.1327   44.8659   -7.5780 H         1 0QS400      0.0000 
    103 H          32.6250   45.4120   -7.6996 H         1 0QS400      0.0000 
    104 H          31.2451   44.9104   -4.9782 H         1 0QS400      0.0000 
    105 H          30.8286   44.5081   -6.4785 H         1 0QS400      0.0000 
    106 H          30.9733   43.3700   -5.3516 H         1 0QS400      0.0000 
    107 H          33.5447   42.6893   -7.6353 H         1 0QS400      0.0000 
    108 H          32.6048   41.9305   -6.5736 H         1 0QS400      0.0000 
    109 H          31.9500   42.8906   -7.6852 H         1 0QS400      0.0000 
    110 H          34.3157   43.5080    5.8552 H         1 0QS400      0.0000 
    111 H          36.6137   43.8966    5.7304 H         1 0QS400      0.0000 
@<TRIPOS>BOND
     1    2    1 2    
     2    3    1 2    
     3    4    1 1    
     4    8    1 1    
     5    5    4 1    
     6    6    4 1    
     7    7    4 1    
     8  101    5 1    
     9  102    5 1    
    10  103    5 1    
    11  104    6 1    
    12  105    6 1    
    13  106    6 1    
    14  107    7 1    
    15  108    7 1    
    16  109    7 1    
    17    9    8 1    
    18   55    8 1    
    19   10    9 1    
    20   17    9 1    
    21   56    9 1    
    22   11   10 1    
    23   57   10 1    
    24   58   10 1    
    25   12   11 ar   
    26   13   11 ar   
    27   14   12 ar   
    28   59   12 1    
    29   15   13 ar   
    30   60   13 1    
    31   16   14 ar   
    32   61   14 1    
    33   16   15 ar   
    34   62   15 1    
    35   63   16 1    
    36   18   17 2    
    37   19   17 am   
    38   20   19 1    
    39   64   19 1    
    40   21   20 1    
    41   23   20 1    
    42   65   20 1    
    43   22   21 2    
    44   29   21 am   
    45   24   23 1    
    46   66   23 1    
    47   67   23 1    
    48   25   24 1    
    49   26   24 2    
    50   27   25 1    
    51   68   25 1    
    52   28   26 1    
    53   69   26 1    
    54   28   27 2    
    55   70   27 1    
    56   71   28 1    
    57   30   29 1    
    58   72   29 1    
    59   31   30 1    
    60   38   30 1    
    61   73   30 1    
    62   32   31 1    
    63   74   31 1    
    64   75   31 1    
    65   33   32 1    
    66   34   32 1    
    67   76   32 1    
    68   35   33 1    
    69   77   33 1    
    70   78   33 1    
    71   36   34 1    
    72   79   34 1    
    73   80   34 1    
    74   37   35 1    
    75   81   35 1    
    76   82   35 1    
    77   37   36 1    
    78   83   36 1    
    79   84   36 1    
    80   85   37 1    
    81   86   37 1    
    82   39   38 1    
    83   40   38 1    
    84   41   38 1    
    85  110   39 1    
    86  111   40 1    
    87   42   41 1    
    88   43   41 1    
    89   44   41 1    
    90   45   44 2    
    91   54   44 am   
    92   47   46 1    
    93   51   46 1    
    94   48   47 1    
    95   87   47 1    
    96   88   47 1    
    97   49   48 1    
    98   89   48 1    
    99   90   48 1    
   100   50   49 1    
   101   52   49 1    
   102   91   49 1    
   103   51   50 1    
   104   92   50 1    
   105   93   50 1    
   106   94   51 1    
   107   95   51 1    
   108   53   52 1    
   109   96   52 1    
   110   97   52 1    
   111   54   53 1    
   112   98   53 1    
   113   99   53 1    
   114  100   54 1    
@<TRIPOS>SUBSTRUCTURE
     1 0QS400      1 GROUP   
@<TRIPOS>SET

