#    Name: 2yke_YKE_1_INTS_M
#    Modification time : Mon Apr  7 18:23:19 2014

@<TRIPOS>MOLECULE
2yke_YKE_1_INTS_M
   82     0     6     0     0
SMALL
NO_CHARGES


@<TRIPOS>ATOM
      1 CA          9.4285    9.6275   21.7545 C.3       2 GLC5        0.0000 
      2 CA          8.4630   10.4070   23.5140 C.3       6 GLL5        0.0000 
      3 CA         10.3940    8.8480   19.9950 C.3       4 GLP5        0.0000 
      4 CA          7.7505    9.3005   20.8965 C.3       2 GLC5        0.0000 
      5 CA          7.3650    9.7460   22.9790 C.3       6 GLL5        0.0000 
      6 CA          8.1360    8.8550   18.8140 C.3       4 GLP5        0.0000 
      7 CA          4.7365   13.0940   22.6680 C.3       2 GLC5        0.0000 
      8 CA          4.8690   12.1990   24.4130 C.3       6 GLL5        0.0000 
      9 CA          4.6040   13.9890   20.9230 C.3       4 GLP5        0.0000 
     10 CA          5.0655   12.9430   26.8065 C.3       2 GLC5        0.0000 
     11 CA          4.4610   14.5390   25.4730 C.3       6 GLL5        0.0000 
     12 CA          5.6700   11.3470   28.1400 C.3       4 GLP5        0.0000 
     13 CA          5.0930   17.3950   27.3455 C.3       2 GLC5        0.0000 
     14 CA          5.1110   15.4900   26.2490 C.3       6 GLL5        0.0000 
     15 CA          5.0750   19.3000   28.4420 C.3       4 GLP5        0.0000 
     16 CA          6.0735   13.3760   27.2970 C.3       2 GLC5        0.0000 
     17 CA          6.4770   15.4050   26.4540 C.3       6 GLL5        0.0000 
     18 CA          7.6735   12.6590   26.8390 C.3       2 GLC5        0.0000 
     19 CA          7.2310   14.3760   25.8720 C.3       6 GLL5        0.0000 
     20 CA          8.1160   10.9420   27.8060 C.3       4 GLP5        0.0000 
     21 O           9.8165   14.8925   24.0275 O.2       1 ALC1        0.0000 
     22 O           9.6390   14.2750   25.2150 O.2       5 ALL1        0.0000 
     23 O           9.9940   15.5100   22.8400 O.2       3 ALP1        0.0000 
     24 CA          9.3330   12.7690   27.5270 C.3       2 GLC5        0.0000 
     25 CA         10.5500   14.5960   27.2480 C.3       6 GLL5        0.0000 
     26 CA         11.0210   14.8735   30.2480 C.3       2 GLC5        0.0000 
     27 CA         11.6000   14.7550   28.1760 C.3       6 GLL5        0.0000 
     28 CA         10.4420   14.9920   32.3200 C.3       4 GLP5        0.0000 
     29 CA         13.8190   14.4670   24.1175 C.3       2 GLC5        0.0000 
     30 CA         12.1760   14.4240   25.4690 C.3       6 GLL5        0.0000 
     31 CA         15.4620   14.5100   22.7660 C.3       4 GLP5        0.0000 
     32 CA          3.8395   10.4990   27.2615 C.3       2 GLC5        0.0000 
     33 CA          2.0090    9.6510   26.3830 C.3       6 GLL5        0.0000 
     34 CA         -1.3360    8.3240   28.5660 C.3       2 GLC5        0.0000 
     35 CA         -0.2850    9.6100   27.1520 C.3       6 GLL5        0.0000 
     36 CA         -2.3870    7.0380   29.9800 C.3       4 GLP5        0.0000 
     37 CA         -2.9390    9.5870   25.3790 C.3       2 GLC5        0.0000 
     38 CA         -2.3260   11.2620   24.6640 C.3       6 GLL5        0.0000 
     39 CA         -3.5520    7.9120   26.0940 C.3       4 GLP5        0.0000 
     40 CA         -2.7190   12.7315   25.7220 C.3       2 GLC5        0.0000 
     41 CA         -3.1120   14.2010   26.7800 C.3       4 GLP5        0.0000 
     42 CA         -1.7215   13.3215   24.8630 C.3       2 GLC5        0.0000 
     43 CA         -1.4630   11.7010   23.6730 C.3       6 GLL5        0.0000 
     44 CA         -1.9800   14.9420   26.0530 C.3       4 GLP5        0.0000 
     45 CA          7.1545    9.6612   25.1238 C.3       2 GLC5        0.0000 
     46 CA          6.3950    9.2460   27.0010 C.3       4 GLP5        0.0000 
     47 CA          8.5910    8.2497   23.7172 C.3       2 GLC5        0.0000 
     48 CA          9.2680    6.4230   24.1880 C.3       4 GLP5        0.0000 
     49 CA         10.4225   11.1005   23.7263 C.3       2 GLC5        0.0000 
     50 CA         12.4460   11.2010   23.5770 C.3       4 GLP5        0.0000 
     51 CA          6.2140   10.0775   25.2080 C.3       2 GLC5        0.0000 
     52 CA          6.0960   10.2860   23.1210 C.3       6 GLL5        0.0000 
     53 CA          5.3280   11.7595   21.8615 C.3       2 GLC5        0.0000 
     54 CA          4.6230   12.6100   20.3080 C.3       4 GLP5        0.0000 
     55 CA          7.9075   11.4095   26.0553 C.3       2 GLC5        0.0000 
     56 CA          7.0630   12.1610   24.3720 C.3       6 GLL5        0.0000 
     57 CA          3.7465   12.7850   26.3640 C.3       2 GLC5        0.0000 
     58 CA          2.4520   12.6960   28.0870 C.3       4 GLP5        0.0000 
     59 CA          5.7412   12.2390   26.5020 C.3       2 GLC5        0.0000 
     60 CA          5.2130   13.5490   24.8690 C.3       6 GLL5        0.0000 
     61 CA          3.6190   13.8552   26.9740 C.3       2 GLC5        0.0000 
     62 CA          3.5645   16.4982   25.2220 C.3       2 GLC5        0.0000 
     63 CA          2.3430   17.9820   24.5830 C.3       4 GLP5        0.0000 
     64 CA          4.9823   15.4514   27.9797 C.3       2 GLC5        0.0000 
     65 CA          4.3330   15.6930   29.8020 C.3       4 GLP5        0.0000 
     66 CA         11.9787   12.8123   24.6253 C.3       2 GLC5        0.0000 
     67 CA         10.8470   14.4230   25.8780 C.3       6 GLL5        0.0000 
     68 CA         12.5523   13.0563   27.8775 C.3       2 GLC5        0.0000 
     69 CA         12.8870   14.7720   27.6800 C.3       6 GLL5        0.0000 
     70 CA         12.8610   11.3490   27.8270 C.3       4 GLP5        0.0000 
     71 CA         12.1491   12.9079   26.9215 C.3       2 GLC5        0.0000 
     72 CA          2.1467   11.3537   26.9453 C.3       2 GLC5        0.0000 
     73 CA         -2.0130    8.9415   26.3272 C.3       2 GLC5        0.0000 
     74 CA          1.1365   10.6113   28.3858 C.3       2 GLC5        0.0000 
     75 CA          1.8980   11.7770   29.5330 C.3       4 GLP5        0.0000 
     76 CA         -3.2763   10.4012   23.1187 C.3       2 GLC5        0.0000 
     77 CA         -4.6580    9.3210   22.0690 C.3       4 GLP5        0.0000 
     78 CA         -0.5164   10.4228   22.4314 C.3       2 GLC5        0.0000 
     79 CA         -0.3520    9.4450   20.8110 C.3       4 GLP5        0.0000 
     80 CA          0.4022   12.2372   26.1487 C.3       2 GLC5        0.0000 
     81 CA         -0.1060   11.4660   23.8600 C.3       6 GLL5        0.0000 
     82 CA          0.9460   13.4750   27.6250 C.3       4 GLP5        0.0000 
@<TRIPOS>BOND
@<TRIPOS>SUBSTRUCTURE
     1 ALC1       21 GROUP        1 X    ALC  0     ROOT ALC X 1
     2 GLC5        1 GROUP        1 X    GLC  0     **** GLC X 6
     3 ALP1       23 GROUP        1 Y    ALP  0     ROOT ALP Y 8
     4 GLP5        3 GROUP        1 Y    GLP  0     **** GLP Y 13
     5 ALL1       22 GROUP        1 Z    ALL  0     ROOT ALL Z 15
     6 GLL5        2 GROUP        1 Z    GLL  0     **** GLL Z 20
@<TRIPOS>SET

