#    Name: 2yke_YKE_1_ligand
#    Modification time : Mon Apr  7 18:23:19 2014

@<TRIPOS>MOLECULE
2yke_YKE_1_ligand
   54    60     1     0     0
SMALL
NO_CHARGES


@<TRIPOS>ATOM
      1 C1          8.4630   10.4070   23.5140 C.ar      1 YKE1224     0.0000 
      2 C2          7.3650    9.7460   22.9790 C.ar      1 YKE1224     0.0000 
      3 C3          6.0960   10.2860   23.1210 C.ar      1 YKE1224     0.0000 
      4 C4          8.3350   11.5930   24.2370 C.ar      1 YKE1224     0.0000 
      5 C5          7.0630   12.1610   24.3720 C.ar      1 YKE1224     0.0000 
      6 C6          5.9700   11.5320   23.7090 C.ar      1 YKE1224     0.0000 
      7 C7          4.8690   12.1990   24.4130 C.2       1 YKE1224     0.0000 
      8 C8          6.5840   13.3880   25.0870 C.2       1 YKE1224     0.0000 
      9 C9          5.2130   13.5490   24.8690 C.2       1 YKE1224     0.0000 
     10 C10         4.4610   14.5390   25.4730 C.2       1 YKE1224     0.0000 
     11 C11         5.1110   15.4900   26.2490 C.2       1 YKE1224     0.0000 
     12 C12         6.4770   15.4050   26.4540 C.2       1 YKE1224     0.0000 
     13 C13         7.2310   14.3760   25.8720 C.3       1 YKE1224     0.0000 
     14 C14         8.6730   14.3890   26.1500 C.2       1 YKE1224     0.0000 
     15 N15         9.2020   14.5590   27.3600 N.2       1 YKE1224     0.0000 
     16 N16         9.6390   14.2750   25.2150 N.pl3     1 YKE1224     0.0000 
     17 C17        10.8470   14.4230   25.8780 C.ar      1 YKE1224     0.0000 
     18 C18        10.5500   14.5960   27.2480 C.ar      1 YKE1224     0.0000 
     19 C19        11.6000   14.7550   28.1760 C.ar      1 YKE1224     0.0000 
     20 C20        12.8870   14.7720   27.6800 C.ar      1 YKE1224     0.0000 
     21 N21        13.1230   14.6260   26.3780 N.ar      1 YKE1224     0.0000 
     22 C22        12.1760   14.4240   25.4690 C.ar      1 YKE1224     0.0000 
     23 N23         3.5190   11.7230   24.6080 N.am      1 YKE1224     0.0000 
     24 C24         2.7750   10.6720   24.2640 C.2       1 YKE1224     0.0000 
     25 C25         1.6740   10.3720   25.2240 C.ar      1 YKE1224     0.0000 
     26 O26         2.8840   10.1230   23.1770 O.2       1 YKE1224     0.0000 
     27 C27         2.0090    9.6510   26.3830 C.ar      1 YKE1224     0.0000 
     28 C28        -0.2850    9.6100   27.1520 C.ar      1 YKE1224     0.0000 
     29 C29         1.0350    9.2810   27.3250 C.ar      1 YKE1224     0.0000 
     30 C30         0.3090   10.7340   25.0010 C.ar      1 YKE1224     0.0000 
     31 C31        -0.6630   10.3320   25.9690 C.ar      1 YKE1224     0.0000 
     32 N32        -1.9420   10.6700   25.7710 N.ar      1 YKE1224     0.0000 
     33 C33        -2.3260   11.2620   24.6640 C.ar      1 YKE1224     0.0000 
     34 C34        -1.4630   11.7010   23.6730 C.ar      1 YKE1224     0.0000 
     35 C35        -0.1060   11.4660   23.8600 C.ar      1 YKE1224     0.0000 
     36 H           9.4151   10.0058   23.3720 H         1 YKE1224     0.0000 
     37 H           7.4942    8.8568   22.4781 H         1 YKE1224     0.0000 
     38 H           5.2743    9.7749   22.7987 H         1 YKE1224     0.0000 
     39 H           9.1466   12.0368   24.6575 H         1 YKE1224     0.0000 
     40 H           3.4479   14.5732   25.3531 H         1 YKE1224     0.0000 
     41 H           4.5725   16.2604   26.6724 H         1 YKE1224     0.0000 
     42 H           6.9560   16.1067   27.0437 H         1 YKE1224     0.0000 
     43 H           7.4507   15.1963   24.7087 H         1 YKE1224     0.0000 
     44 H           9.5353   14.1241   24.2866 H         1 YKE1224     0.0000 
     45 H          11.4025   14.8513   29.1602 H         1 YKE1224     0.0000 
     46 H          13.6766   14.9031   28.3556 H         1 YKE1224     0.0000 
     47 H          12.3919   14.2684   24.4737 H         1 YKE1224     0.0000 
     48 H           2.9410   12.4996   25.2527 H         1 YKE1224     0.0000 
     49 H           2.9957    9.3869   26.5457 H         1 YKE1224     0.0000 
     50 H          -1.0008    9.3630   27.8263 H         1 YKE1224     0.0000 
     51 H           1.3349    8.7480   28.1642 H         1 YKE1224     0.0000 
     52 H          -3.3701   11.4305   24.4874 H         1 YKE1224     0.0000 
     53 H          -1.8042   12.1729   22.8473 H         1 YKE1224     0.0000 
     54 H           0.5853   11.8069   23.1991 H         1 YKE1224     0.0000 
@<TRIPOS>BOND
     1    2    1 ar   
     2    4    1 ar   
     3   36    1 1    
     4    3    2 ar   
     5   37    2 1    
     6    6    3 ar   
     7   38    3 1    
     8    5    4 ar   
     9   39    4 1    
    10    6    5 ar   
    11    8    5 2    
    12    7    6 2    
    13    9    7 1    
    14   23    7 1    
    15    9    8 1    
    16   13    8 1    
    17   10    9 2    
    18   11   10 1    
    19   40   10 1    
    20   12   11 2    
    21   41   11 1    
    22   13   12 1    
    23   42   12 1    
    24   14   13 1    
    25   43   13 1    
    26   15   14 2    
    27   16   14 1    
    28   18   15 1    
    29   17   16 1    
    30   44   16 1    
    31   18   17 ar   
    32   22   17 ar   
    33   19   18 ar   
    34   20   19 ar   
    35   45   19 1    
    36   21   20 ar   
    37   46   20 1    
    38   22   21 ar   
    39   47   22 1    
    40   24   23 am   
    41   48   23 1    
    42   25   24 1    
    43   26   24 2    
    44   27   25 ar   
    45   30   25 ar   
    46   29   27 ar   
    47   49   27 1    
    48   29   28 ar   
    49   31   28 ar   
    50   50   28 1    
    51   51   29 1    
    52   31   30 ar   
    53   35   30 ar   
    54   32   31 ar   
    55   33   32 ar   
    56   34   33 ar   
    57   52   33 1    
    58   35   34 ar   
    59   53   34 1    
    60   54   35 1    
@<TRIPOS>SUBSTRUCTURE
     1 YKE1224     1 GROUP   
@<TRIPOS>SET

