#    Name: 3qaq_QAQ_1_INTS_M
#    Modification time : Tue Mar 25 09:15:29 2014

@<TRIPOS>MOLECULE
3qaq_QAQ_1_INTS_M
   84     0     9     0     0
SMALL
NO_CHARGES


@<TRIPOS>ATOM
      1 N          19.1220   11.2455   24.6575 N.am      2 SEC2        0.0000 
      2 N          20.2340   12.1550   24.3750 N.am      8 SEL2        0.0000 
      3 N          18.0100   10.3360   24.9400 N.am      5 SEP2        0.0000 
      4 CA         21.7300   14.0215   20.5450 C.3       3 GLC5        0.0000 
      5 CA         22.1760   15.7900   21.6010 C.3       9 GLL5        0.0000 
      6 CA         21.2840   12.2530   19.4890 C.3       6 GLP5        0.0000 
      7 CA         21.7970   16.0310   23.6285 C.3       3 GLC5        0.0000 
      8 CA         21.4180   16.2720   25.6560 C.3       6 GLP5        0.0000 
      9 CA         21.6075   19.0975   22.7355 C.3       3 GLC5        0.0000 
     10 CA         21.0540   17.8810   21.0840 C.3       9 GLL5        0.0000 
     11 CA         22.1610   20.3140   24.3870 C.3       6 GLP5        0.0000 
     12 CA         26.6350   10.2910   21.3605 C.3       3 GLC5        0.0000 
     13 CA         27.6600   11.7850   22.5250 C.3       9 GLL5        0.0000 
     14 CA         25.6100    8.7970   20.1960 C.3       6 GLP5        0.0000 
     15 N          14.9020   15.2125   25.5975 N.am      2 SEC2        0.0000 
     16 N          15.0740   14.6290   24.1580 N.am      8 SEL2        0.0000 
     17 N          14.7300   15.7960   27.0370 N.am      5 SEP2        0.0000 
     18 CA         18.8395   15.9650   24.4210 C.3       3 GLC5        0.0000 
     19 CA         17.6660   14.6930   23.6930 C.3       9 GLL5        0.0000 
     20 CA         20.0130   17.2370   25.1490 C.3       6 GLP5        0.0000 
     21 O          17.3140   12.9595   24.9795 O.2       1 ALC1        0.0000 
     22 O          18.3610   13.4400   24.0530 O.2       7 ALL1        0.0000 
     23 O          16.2670   12.4790   25.9060 O.2       4 ALP1        0.0000 
     24 CA         18.9515   11.4200   23.2255 C.3       3 GLC5        0.0000 
     25 CA         19.6590   13.2290   23.8190 C.3       9 GLL5        0.0000 
     26 CA         18.2440    9.6110   22.6320 C.3       6 GLP5        0.0000 
     27 CA         18.5165   11.8090   25.0355 C.3       3 GLC5        0.0000 
     28 CA         17.3740   10.3890   26.2520 C.3       6 GLP5        0.0000 
     29 CA         20.5385   14.7505   24.7375 C.3       3 GLC5        0.0000 
     30 CA         22.7440   10.4600   23.1165 C.3       3 GLC5        0.0000 
     31 CA         21.5120   11.9010   24.1730 C.3       9 GLL5        0.0000 
     32 CA         23.9760    9.0190   22.0600 C.3       6 GLP5        0.0000 
     33 CA         19.8780   10.7560   23.4025 C.3       3 GLC5        0.0000 
     34 CA         20.5030   10.9085   25.8475 C.3       3 GLC5        0.0000 
     35 CA         19.4940    9.9160   27.5220 C.3       6 GLP5        0.0000 
     36 CA         23.1880   12.9550   25.1520 C.3       3 GLC5        0.0000 
     37 CA         24.8640   14.0090   26.1310 C.3       6 GLP5        0.0000 
     38 CA         21.4930   13.0205   21.1640 C.3       3 GLC5        0.0000 
     39 CA         21.7020   13.7880   22.8390 C.3       9 GLL5        0.0000 
     40 CA         21.5600   15.0300   24.2475 C.3       3 GLC5        0.0000 
     41 CA         29.1570   10.6400   20.4015 C.3       3 GLC5        0.0000 
     42 CA         28.3360   12.1950   21.3780 C.3       9 GLL5        0.0000 
     43 CA         29.9780    9.0850   19.4250 C.3       6 GLP5        0.0000 
     44 N          27.6005   11.1080   24.6150 N.am      2 SEC2        0.0000 
     45 N          28.3210   11.0800   23.4800 N.am      8 SEL2        0.0000 
     46 N          26.8800   11.1360   25.7500 N.am      5 SEP2        0.0000 
     47 N          28.5555   12.5165   24.0470 N.am      2 SEC2        0.0000 
     48 N          28.7900   13.9530   24.6140 N.am      5 SEP2        0.0000 
     49 O          29.5985   10.9640   23.2645 O.2       1 ALC1        0.0000 
     50 O          28.3210   11.0800   23.4800 O.2       7 ALL1        0.0000 
     51 O          30.8760   10.8480   23.0490 O.2       4 ALP1        0.0000 
     52 CA         21.7377   16.1190   19.5460 C.3       3 GLC5        0.0000 
     53 CA         23.2830   16.2140   20.8610 C.3       9 GLL5        0.0000 
     54 CA         20.7460   16.2360   17.8610 C.3       6 GLP5        0.0000 
     55 CA         20.9015   16.7455   19.6290 C.3       3 GLC5        0.0000 
     56 CA         21.0600   16.6290   21.7100 C.3       9 GLL5        0.0000 
     57 CA         20.5350   17.2460   23.2730 C.3       3 GLC5        0.0000 
     58 CA         21.7347   17.0568   19.0772 C.3       3 GLC5        0.0000 
     59 CA         22.1670   18.2940   20.3490 C.3       9 GLL5        0.0000 
     60 CA         24.1049   16.6317   22.4222 C.3       3 GLC5        0.0000 
     61 CA         23.2800   17.4610   20.2380 C.3       9 GLL5        0.0000 
     62 CA         25.2050   16.5320   24.1100 C.3       6 GLP5        0.0000 
     63 CA         24.9753   10.7435   22.1388 C.3       3 GLC5        0.0000 
     64 CA         25.6350   12.8340   21.7330 C.3       9 GLL5        0.0000 
     65 CA         27.2267   13.1558   18.4068 C.3       3 GLC5        0.0000 
     66 CA         26.3160   13.2310   20.5790 C.3       9 GLL5        0.0000 
     67 CA         27.4640   13.2350   16.3230 C.3       6 GLP5        0.0000 
     68 CA         26.3888   11.2007   19.6487 C.3       3 GLC5        0.0000 
     69 CA         27.6630   12.9220   20.4020 C.3       9 GLL5        0.0000 
     70 CA         25.7880    9.3250   18.8070 C.3       6 GLP5        0.0000 
     71 CA         28.2623   14.2628   21.6457 C.3       3 GLC5        0.0000 
     72 CA         29.5350   15.4490   22.8010 C.3       6 GLP5        0.0000 
     73 CA         26.4806   13.3823   23.9821 C.3       3 GLC5        0.0000 
     74 CA         26.1440   14.6380   25.5930 C.3       6 GLP5        0.0000 
     75 CA         16.5483   14.6457   22.0813 C.3       3 GLC5        0.0000 
     76 CA         16.1570   14.6550   20.3280 C.3       6 GLP5        0.0000 
     77 CA         16.6463   12.9123   22.9247 C.3       3 GLC5        0.0000 
     78 CA         16.2130   14.5800   23.9760 C.3       9 GLL5        0.0000 
     79 CA         16.3530   11.1880   22.0150 C.3       6 GLP5        0.0000 
     80 CA         17.0063   15.0243   25.7377 C.3       3 GLC5        0.0000 
     81 CA         17.0730   15.4120   27.6410 C.3       6 GLP5        0.0000 
     82 CA         28.7613   13.1416   22.8219 C.3       3 GLC5        0.0000 
     83 CA         26.3140   12.1020   22.7020 C.3       9 GLL5        0.0000 
     84 CA         29.8610   14.2140   23.6480 C.3       6 GLP5        0.0000 
@<TRIPOS>BOND
@<TRIPOS>SUBSTRUCTURE
     1 ALC1       21 GROUP        1 X    ALC  0     ROOT ALC X 1
     2 SEC2        1 GROUP        1 X    SEC  0     **** SEC X 2
     3 GLC5        4 GROUP        1 X    GLC  0     **** GLC X 6
     4 ALP1       23 GROUP        1 Y    ALP  0     ROOT ALP Y 8
     5 SEP2        3 GROUP        1 Y    SEP  0     **** SEP Y 9
     6 GLP5        6 GROUP        1 Y    GLP  0     **** GLP Y 13
     7 ALL1       22 GROUP        1 Z    ALL  0     ROOT ALL Z 15
     8 SEL2        2 GROUP        1 Z    SEL  0     **** SEL Z 16
     9 GLL5        5 GROUP        1 Z    GLL  0     **** GLL Z 20
@<TRIPOS>SET

