#    Name: 3qaq_QAQ_1_ligand
#    Modification time : Tue Mar 25 09:15:29 2014

@<TRIPOS>MOLECULE
3qaq_QAQ_1_ligand
   41    44     1     0     0
SMALL
NO_CHARGES


@<TRIPOS>ATOM
      1 N1         20.3970   14.0490   23.0470 N.ar      1 QAQ1103     0.0000 
      2 N3         20.2340   12.1550   24.3750 N.ar      1 QAQ1103     0.0000 
      3 C4         22.1760   15.7900   21.6010 C.ar      1 QAQ1103     0.0000 
      4 C5         23.2830   16.2140   20.8610 C.ar      1 QAQ1103     0.0000 
      5 C6         23.7070   14.2600   21.6470 C.2       1 QAQ1103     0.0000 
      6 C7         21.0600   16.6290   21.7100 C.ar      1 QAQ1103     0.0000 
      7 C8         21.0540   17.8810   21.0840 C.ar      1 QAQ1103     0.0000 
      8 C10        23.2800   17.4610   20.2380 C.ar      1 QAQ1103     0.0000 
      9 C13        25.6350   12.8340   21.7330 C.ar      1 QAQ1103     0.0000 
     10 C15        27.6630   12.9220   20.4020 C.ar      1 QAQ1103     0.0000 
     11 C17        27.6600   11.7850   22.5250 C.ar      1 QAQ1103     0.0000 
     12 N8         15.0740   14.6290   24.1580 N.1       1 QAQ1103     0.0000 
     13 C12        16.2130   14.5800   23.9760 C.1       1 QAQ1103     0.0000 
     14 C11        17.6660   14.6930   23.6930 C.3       1 QAQ1103     0.0000 
     15 N7         18.3610   13.4400   24.0530 N.pl3     1 QAQ1103     0.0000 
     16 C1         19.6590   13.2290   23.8190 C.ar      1 QAQ1103     0.0000 
     17 C3         21.5120   11.9010   24.1730 C.ar      1 QAQ1103     0.0000 
     18 N2         22.2390   12.7000   23.4180 N.ar      1 QAQ1103     0.0000 
     19 C2         21.7020   13.7880   22.8390 C.ar      1 QAQ1103     0.0000 
     20 N4         22.4770   14.5750   22.0710 N.pl3     1 QAQ1103     0.0000 
     21 C9         22.1670   18.2940   20.3490 C.ar      1 QAQ1103     0.0000 
     22 N5         24.1990   15.2530   20.9100 N.2       1 QAQ1103     0.0000 
     23 N6         24.3370   13.1060   21.9270 N.pl3     1 QAQ1103     0.0000 
     24 C18        26.3140   12.1020   22.7020 C.ar      1 QAQ1103     0.0000 
     25 C14        26.3160   13.2310   20.5790 C.ar      1 QAQ1103     0.0000 
     26 C16        28.3360   12.1950   21.3780 C.ar      1 QAQ1103     0.0000 
     27 O1         28.3210   11.0800   23.4800 O.3       1 QAQ1103     0.0000 
     28 H          20.2423   16.3240   22.2518 H         1 QAQ1103     0.0000 
     29 H          20.2353   18.4909   21.1658 H         1 QAQ1103     0.0000 
     30 H          24.0978   17.7668   19.6968 H         1 QAQ1103     0.0000 
     31 H          28.1544   13.2295   19.5563 H         1 QAQ1103     0.0000 
     32 H          18.0872   15.5297   24.2650 H         1 QAQ1103     0.0000 
     33 H          17.8165   14.9091   22.6275 H         1 QAQ1103     0.0000 
     34 H          17.7557   12.7176   24.5115 H         1 QAQ1103     0.0000 
     35 H          21.9548   11.0534   24.6183 H         1 QAQ1103     0.0000 
     36 H          22.1653   19.2129   19.8896 H         1 QAQ1103     0.0000 
     37 H          23.7278   12.3098   22.3563 H         1 QAQ1103     0.0000 
     38 H          25.8228   11.7934   23.5515 H         1 QAQ1103     0.0000 
     39 H          25.8126   13.7603   19.8489 H         1 QAQ1103     0.0000 
     40 H          29.3276   11.9607   21.2547 H         1 QAQ1103     0.0000 
     41 H          29.0953   10.6629   23.0041 H         1 QAQ1103     0.0000 
@<TRIPOS>BOND
     1   16    1 ar   
     2   19    1 ar   
     3   16    2 ar   
     4   17    2 ar   
     5    4    3 ar   
     6    6    3 ar   
     7   20    3 1    
     8    8    4 ar   
     9   22    4 1    
    10   20    5 1    
    11   22    5 2    
    12   23    5 1    
    13    7    6 ar   
    14   28    6 1    
    15   21    7 ar   
    16   29    7 1    
    17   21    8 ar   
    18   30    8 1    
    19   23    9 1    
    20   24    9 ar   
    21   25    9 ar   
    22   25   10 ar   
    23   26   10 ar   
    24   31   10 1    
    25   24   11 ar   
    26   26   11 ar   
    27   27   11 1    
    28   13   12 3    
    29   14   13 1    
    30   15   14 1    
    31   32   14 1    
    32   33   14 1    
    33   16   15 1    
    34   34   15 1    
    35   18   17 ar   
    36   35   17 1    
    37   19   18 ar   
    38   20   19 1    
    39   36   21 1    
    40   37   23 1    
    41   38   24 1    
    42   39   25 1    
    43   40   26 1    
    44   41   27 1    
@<TRIPOS>SUBSTRUCTURE
     1 QAQ1103     1 GROUP   
@<TRIPOS>SET

