#    Name: 3gst_GPR_2_INTS_M
#    Modification time : Tue Mar 25 12:55:40 2014

@<TRIPOS>MOLECULE
3gst_GPR_2_INTS_M
   90     0    15     0     0
SMALL
NO_CHARGES


@<TRIPOS>ATOM
      1 OD1        18.8140   15.7670   14.3530 O.co2     3 ASC3        0.0000 
      2 OD1        18.3420   14.6170   13.5830 O.co2    13 ASL3        0.0000 
      3 OD1        19.2860   16.9170   15.1230 O.co2     8 ASP3        0.0000 
      4 OD1        18.8615   15.9685   13.2965 O.co2     3 ASC3        0.0000 
      5 OD1        19.3810   17.3200   13.0100 O.co2     8 ASP3        0.0000 
      6 O          18.8140   15.7670   14.3530 O.2       1 ALC1        0.0000 
      7 O          18.3420   14.6170   13.5830 O.2      11 ALL1        0.0000 
      8 O          19.2860   16.9170   15.1230 O.2       6 ALP1        0.0000 
      9 O          18.8615   15.9685   13.2965 O.2       1 ALC1        0.0000 
     10 O          19.3810   17.3200   13.0100 O.2       6 ALP1        0.0000 
     11 N          16.0270   11.6440   12.5675 N.am      2 SEC2        0.0000 
     12 N          16.8760   12.5950   12.8130 N.am     12 SEL2        0.0000 
     13 N          15.1780   10.6930   12.3220 N.am      7 SEP2        0.0000 
     14 N          15.5625   13.1115   13.1190 N.am      2 SEC2        0.0000 
     15 N          14.2490   13.6280   13.4250 N.am      7 SEP2        0.0000 
     16 N          15.9605   12.6000   10.3930 N.am      2 SEC2        0.0000 
     17 N          17.3470   12.7270   10.6150 N.am     12 SEL2        0.0000 
     18 N          14.5740   12.4730   10.1710 N.am      7 SEP2        0.0000 
     19 N          16.2625   11.7100   11.4685 N.am      2 SEC2        0.0000 
     20 CA         19.5150   11.4495   12.8105 C.3       5 GLC5        0.0000 
     21 CA         19.9500   13.4060   12.1200 C.3      15 GLL5        0.0000 
     22 CA         19.0800    9.4930   13.5010 C.3      10 GLP5        0.0000 
     23 O          21.4490   12.3865    9.0210 O.2       1 ALC1        0.0000 
     24 O          22.3970   12.8060    9.9540 O.2      11 ALL1        0.0000 
     25 O          20.5010   11.9670    8.0880 O.2       6 ALP1        0.0000 
     26 N          25.6045   10.8240    7.4460 N.am      2 SEC2        0.0000 
     27 N          25.3590   11.9920    8.1440 N.am     12 SEL2        0.0000 
     28 N          25.8500    9.6560    6.7480 N.am      7 SEP2        0.0000 
     29 CA         24.3250    9.5145    8.2220 C.3       5 GLC5        0.0000 
     30 CA         23.4560   10.5670    9.5820 C.3      15 GLL5        0.0000 
     31 CA         25.1940    8.4620    6.8620 C.3      10 GLP5        0.0000 
     32 CA         22.7110   10.9990    7.5445 C.3       5 GLC5        0.0000 
     33 CA         21.9660   11.4310    5.5070 C.3      10 GLP5        0.0000 
     34 CA         21.0005    9.1040   11.8790 C.3       5 GLC5        0.0000 
     35 CA         22.6630    9.9510   11.0840 C.3      15 GLL5        0.0000 
     36 CA         19.3380    8.2570   12.6740 C.3      10 GLP5        0.0000 
     37 O          22.7830   14.5865    8.2425 O.2       1 ALC1        0.0000 
     38 O          23.9690   13.7500    8.0590 O.2      11 ALL1        0.0000 
     39 O          21.5970   15.4230    8.4260 O.2       6 ALP1        0.0000 
     40 CA         24.4280   14.4535    4.7365 C.3       5 GLC5        0.0000 
     41 CA         24.3380   14.3060    6.7050 C.3      15 GLL5        0.0000 
     42 CA         24.5180   14.6010    2.7680 C.3      10 GLP5        0.0000 
     43 CA         22.5220   15.1820    6.1850 C.3       5 GLC5        0.0000 
     44 CA         20.7060   16.0580    5.6650 C.3      10 GLP5        0.0000 
     45 CA         23.5330   13.1130    5.4540 C.3       5 GLC5        0.0000 
     46 CA         22.7280   11.9200    4.2030 C.3      10 GLP5        0.0000 
     47 NZ         25.7070   17.4380    6.8010 N.4       4 LYC4        0.0000 
     48 NZ         25.4470   16.0330    8.0650 N.4      14 LYL4        0.0000 
     49 NZ         25.9670   18.8430    5.5370 N.4       9 LYP4        0.0000 
     50 NZ         25.8830   17.5155    5.7510 N.4       4 LYC4        0.0000 
     51 NZ         25.7990   16.1880    5.9650 N.4      14 LYL4        0.0000 
     52 N          27.2980   15.5410    6.1110 N.am      2 SEC2        0.0000 
     53 N          25.7990   16.1880    5.9650 N.am     12 SEL2        0.0000 
     54 N          28.7970   14.8940    6.2570 N.am      7 SEP2        0.0000 
     55 N          25.6860   15.4075    4.7970 N.am      2 SEC2        0.0000 
     56 N          25.5730   14.6270    3.6290 N.am      7 SEP2        0.0000 
     57 N          25.8830   17.5155    5.7510 N.am      2 SEC2        0.0000 
     58 N          25.9670   18.8430    5.5370 N.am      7 SEP2        0.0000 
     59 CA         20.2550    6.9465   14.2625 C.3       5 GLC5        0.0000 
     60 CA         21.9250    6.8450   15.2840 C.3      15 GLL5        0.0000 
     61 CA         18.5850    7.0480   13.2410 C.3      10 GLP5        0.0000 
     62 CA         22.1007    9.1845    9.1400 C.3       5 GLC5        0.0000 
     63 CA         21.1420    8.1100    7.9470 C.3      10 GLP5        0.0000 
     64 CA         28.0415    5.9845   10.6303 C.3       5 GLC5        0.0000 
     65 CA         25.9690    6.0700   11.2260 C.3      15 GLL5        0.0000 
     66 CA         29.9240    5.3620   10.4400 C.3      10 GLP5        0.0000 
     67 CA         26.2342    4.2963   12.3160 C.3       5 GLC5        0.0000 
     68 CA         26.9830    2.4510   12.9140 C.3      10 GLP5        0.0000 
     69 CA         25.2067    4.9985   10.1206 C.3       5 GLC5        0.0000 
     70 CA         25.0020    6.2130   12.2100 C.3      15 GLL5        0.0000 
     71 CA         24.8330    3.5870    8.7260 C.3      10 GLP5        0.0000 
     72 CA         23.3050    5.3833   11.9780 C.3       5 GLC5        0.0000 
     73 CA         21.9190    3.9470   11.6280 C.3      10 GLP5        0.0000 
     74 CA         22.4915    5.5362   12.7538 C.3       5 GLC5        0.0000 
     75 CA         23.3860    7.6690   13.5420 C.3      15 GLL5        0.0000 
     76 CA         24.2593    7.3949   15.1223 C.3       5 GLC5        0.0000 
     77 CA         22.7420    6.5820   14.2170 C.3      15 GLL5        0.0000 
     78 CA         25.2060    7.7250   16.6390 C.3      10 GLP5        0.0000 
     79 CA         20.0643    7.1230   16.1860 C.3       5 GLC5        0.0000 
     80 CA         18.3190    6.7500   16.8500 C.3      10 GLP5        0.0000 
     81 CA         23.0162    7.2135   16.5600 C.3       5 GLC5        0.0000 
     82 CA         21.6940    8.1470   15.7600 C.3      15 GLL5        0.0000 
     83 CA         24.2230    6.9310   17.5980 C.3      10 GLP5        0.0000 
     84 CA         20.5418    9.0880   14.4635 C.3       5 GLC5        0.0000 
     85 CA         21.5297    9.8465   17.2100 C.3       5 GLC5        0.0000 
     86 CA         22.3130    9.2190   15.0920 C.3      15 GLL5        0.0000 
     87 CA         21.0560   11.0100   18.9940 C.3      10 GLP5        0.0000 
     88 CA         21.2235    8.1499   13.3094 C.3       5 GLC5        0.0000 
     89 CA         23.1540    8.9600   14.0100 C.3      15 GLL5        0.0000 
     90 CA         24.2424    8.6764   15.2955 C.3       5 GLC5        0.0000 
@<TRIPOS>BOND
@<TRIPOS>SUBSTRUCTURE
     1 ALC1        6 GROUP        1 X    ALC  0     ROOT ALC X 1
     2 SEC2       11 GROUP        1 X    SEC  0     **** SEC X 2
     3 ASC3        1 GROUP        1 X    ASC  0     **** ASC X 3
     4 LYC4       47 GROUP        1 X    LYC  0     **** LYC X 4
     5 GLC5       20 GROUP        1 X    GLC  0     **** GLC X 6
     6 ALP1        8 GROUP        1 Y    ALP  0     ROOT ALP Y 8
     7 SEP2       13 GROUP        1 Y    SEP  0     **** SEP Y 9
     8 ASP3        3 GROUP        1 Y    ASP  0     **** ASP Y 10
     9 LYP4       49 GROUP        1 Y    LYP  0     **** LYP Y 11
    10 GLP5       22 GROUP        1 Y    GLP  0     **** GLP Y 13
    11 ALL1        7 GROUP        1 Z    ALL  0     ROOT ALL Z 15
    12 SEL2       12 GROUP        1 Z    SEL  0     **** SEL Z 16
    13 ASL3        2 GROUP        1 Z    ASL  0     **** ASL Z 17
    14 LYL4       48 GROUP        1 Z    LYL  0     **** LYL Z 18
    15 GLL5       21 GROUP        1 Z    GLL  0     **** GLL Z 20
@<TRIPOS>SET

