#    Name: 3gst_GPR_2_ligand
#    Modification time : Tue Mar 25 12:55:41 2014

@<TRIPOS>MOLECULE
3gst_GPR_2_ligand
   61    63     1     0     0
SMALL
NO_CHARGES


@<TRIPOS>ATOM
      1 N1         18.3420   14.6170   13.5830 N.4       1 GPR220      0.0000 
      2 CA1        18.5480   14.1840   12.1450 C.3       1 GPR220      0.0000 
      3 C1         17.5400   13.1340   11.7270 C.2       1 GPR220      0.0000 
      4 O11        16.8760   12.5950   12.8130 O.co2     1 GPR220      0.0000 
      5 O12        17.3470   12.7270   10.6150 O.co2     1 GPR220      0.0000 
      6 CB1        19.9500   13.4060   12.1200 C.3       1 GPR220      0.0000 
      7 CG1        20.8260   14.1610   11.1690 C.3       1 GPR220      0.0000 
      8 CD1        22.2050   13.5140   11.0850 C.2       1 GPR220      0.0000 
      9 OE1        22.9060   13.5830   12.0950 O.2       1 GPR220      0.0000 
     10 N2         22.3970   12.8060    9.9540 N.am      1 GPR220      0.0000 
     11 CA2        23.7250   12.1000    9.8340 C.3       1 GPR220      0.0000 
     12 C2         24.4420   12.6880    8.5670 C.2       1 GPR220      0.0000 
     13 O2         25.3590   11.9920    8.1440 O.2       1 GPR220      0.0000 
     14 CB2        23.4560   10.5670    9.5820 C.3       1 GPR220      0.0000 
     15 SG2        22.6630    9.9510   11.0840 S.3       1 GPR220      0.0000 
     16 N3         23.9690   13.7500    8.0590 N.am      1 GPR220      0.0000 
     17 CA3        24.3380   14.3060    6.7050 C.3       1 GPR220      0.0000 
     18 C3         25.1990   15.5240    6.9630 C.2       1 GPR220      0.0000 
     19 O31        25.4470   16.0330    8.0650 O.co2     1 GPR220      0.0000 
     20 O32        25.7990   16.1880    5.9650 O.co2     1 GPR220      0.0000 
     21 CA4        24.1440    9.8810   11.8780 C.3       1 GPR220      0.0000 
     22 CB4        24.7620    8.5480   11.6450 C.ar      1 GPR220      0.0000 
     23 CG4        25.7600    8.3980   10.6270 C.ar      1 GPR220      0.0000 
     24 CD4        26.3490    7.1440   10.4150 C.ar      1 GPR220      0.0000 
     25 CE4        25.9690    6.0700   11.2260 C.ar      1 GPR220      0.0000 
     26 CZ4        25.0020    6.2130   12.2100 C.ar      1 GPR220      0.0000 
     27 CH4        24.3800    7.4260   12.4460 C.ar      1 GPR220      0.0000 
     28 CH5        23.3860    7.6690   13.5420 C.ar      1 GPR220      0.0000 
     29 CZ5        22.7420    6.5820   14.2170 C.ar      1 GPR220      0.0000 
     30 CE5        21.9250    6.8450   15.2840 C.ar      1 GPR220      0.0000 
     31 CD5        21.6940    8.1470   15.7600 C.ar      1 GPR220      0.0000 
     32 CG5        22.3130    9.2190   15.0920 C.ar      1 GPR220      0.0000 
     33 CB5        23.1540    8.9600   14.0100 C.ar      1 GPR220      0.0000 
     34 CA5        23.8240   10.1660   13.3530 C.3       1 GPR220      0.0000 
     35 O5         25.1460   10.2200   14.0430 O.3       1 GPR220      0.0000 
     36 H          18.6053   14.9639   11.4893 H         1 GPR220      0.0000 
     37 H          19.7572   12.4171   11.7746 H         1 GPR220      0.0000 
     38 H          20.3399   13.4243   13.1110 H         1 GPR220      0.0000 
     39 H          20.9403   15.1924   11.5058 H         1 GPR220      0.0000 
     40 H          20.3782   14.1673   10.1742 H         1 GPR220      0.0000 
     41 H          21.7575   12.7071    9.2052 H         1 GPR220      0.0000 
     42 H          24.3145   12.2293   10.6679 H         1 GPR220      0.0000 
     43 H          24.3311   10.0125    9.5268 H         1 GPR220      0.0000 
     44 H          22.7416   10.4030    8.8478 H         1 GPR220      0.0000 
     45 H          23.2469   14.3668    8.5535 H         1 GPR220      0.0000 
     46 H          23.4499   14.5959    6.1748 H         1 GPR220      0.0000 
     47 H          24.8991   13.5765    6.1511 H         1 GPR220      0.0000 
     48 H          24.7042   10.6777   11.4654 H         1 GPR220      0.0000 
     49 H          26.0290    9.2046   10.0701 H         1 GPR220      0.0000 
     50 H          27.0433    7.0183    9.6808 H         1 GPR220      0.0000 
     51 H          26.4234    5.1478   11.0847 H         1 GPR220      0.0000 
     52 H          24.7385    5.3853   12.7850 H         1 GPR220      0.0000 
     53 H          22.9086    5.6318   13.8843 H         1 GPR220      0.0000 
     54 H          21.4454    6.0533   15.7760 H         1 GPR220      0.0000 
     55 H          21.0992    8.3093   16.5607 H         1 GPR220      0.0000 
     56 H          22.1444   10.1777   15.4011 H         1 GPR220      0.0000 
     57 H          23.2944   11.0186   13.4838 H         1 GPR220      0.0000 
     58 H          17.3834   14.5455   13.8587 H         1 GPR220      0.0000 
     59 H          18.8725   14.0568   14.2192 H         1 GPR220      0.0000 
     60 H          18.6187   15.5670   13.7281 H         1 GPR220      0.0000 
     61 H          25.6966    9.5105   13.6031 H         1 GPR220      0.0000 
@<TRIPOS>BOND
     1    2    1 1    
     2   58    1 1    
     3   59    1 1    
     4   60    1 1    
     5    3    2 1    
     6    6    2 1    
     7   36    2 1    
     8    4    3 ar   
     9    5    3 ar   
    10    7    6 1    
    11   37    6 1    
    12   38    6 1    
    13    8    7 1    
    14   39    7 1    
    15   40    7 1    
    16    9    8 2    
    17   10    8 am   
    18   11   10 1    
    19   41   10 1    
    20   12   11 1    
    21   14   11 1    
    22   42   11 1    
    23   13   12 2    
    24   16   12 am   
    25   15   14 1    
    26   43   14 1    
    27   44   14 1    
    28   21   15 1    
    29   17   16 1    
    30   45   16 1    
    31   18   17 1    
    32   46   17 1    
    33   47   17 1    
    34   19   18 ar   
    35   20   18 ar   
    36   22   21 1    
    37   34   21 1    
    38   48   21 1    
    39   23   22 ar   
    40   27   22 ar   
    41   24   23 ar   
    42   49   23 1    
    43   25   24 ar   
    44   50   24 1    
    45   26   25 ar   
    46   51   25 1    
    47   27   26 ar   
    48   52   26 1    
    49   28   27 1    
    50   29   28 ar   
    51   33   28 ar   
    52   30   29 ar   
    53   53   29 1    
    54   31   30 ar   
    55   54   30 1    
    56   32   31 ar   
    57   55   31 1    
    58   33   32 ar   
    59   56   32 1    
    60   34   33 1    
    61   35   34 1    
    62   57   34 1    
    63   61   35 1    
@<TRIPOS>SUBSTRUCTURE
     1 GPR220      1 GROUP   
@<TRIPOS>SET

