#    Name: 4j3d_1JS_1_INTS_M
#    Modification time : Tue Mar 25 05:20:00 2014

@<TRIPOS>MOLECULE
4j3d_1JS_1_INTS_M
   83     0    12     0     0
SMALL
NO_CHARGES


@<TRIPOS>ATOM
      1 CA          0.3345   10.0300   25.1375 C.3       4 GLC5        0.0000 
      2 CA          0.1540   11.8100   24.8150 C.3      12 GLL5        0.0000 
      3 CA          0.5150    8.2500   25.4600 C.3       8 GLP5        0.0000 
      4 CA          1.7475    9.9990   19.6705 C.3       4 GLC5        0.0000 
      5 CA          2.7420   11.6840   20.7320 C.3      12 GLL5        0.0000 
      6 CA          0.7530    8.3140   18.6090 C.3       8 GLP5        0.0000 
      7 CA         -0.1230   11.6210   21.3685 C.3       4 GLC5        0.0000 
      8 CA          1.7500   11.6570   21.6820 C.3      12 GLL5        0.0000 
      9 CA         -1.9960   11.5850   21.0550 C.3       8 GLP5        0.0000 
     10 CA          4.8215    7.7315   16.6030 C.3       4 GLC5        0.0000 
     11 CA          5.3650    9.3230   17.6110 C.3      12 GLL5        0.0000 
     12 CA          4.2780    6.1400   15.5950 C.3       8 GLP5        0.0000 
     13 CA          6.0785    7.3465   24.2515 C.3       4 GLC5        0.0000 
     14 CA          5.7550    8.2660   22.7740 C.3      12 GLL5        0.0000 
     15 CA          6.4020    6.4270   25.7290 C.3       8 GLP5        0.0000 
     16 CA          6.1950    9.8325   24.3125 C.3       4 GLC5        0.0000 
     17 CA          6.6350   11.3990   25.8510 C.3       8 GLP5        0.0000 
     18 N           4.3475    6.0505   22.9900 N.am      2 SEC2        0.0000 
     19 N           5.7170    6.8290   22.7470 N.am     10 SEL2        0.0000 
     20 N           2.9780    5.2720   23.2330 N.am      6 SEP2        0.0000 
     21 O           6.5415    5.9405   23.4070 O.2       1 ALC1        0.0000 
     22 O           5.7170    6.8290   22.7470 O.2       9 ALL1        0.0000 
     23 O           7.3660    5.0520   24.0670 O.2       5 ALP1        0.0000 
     24 CA         -0.7925    9.6550   25.4235 C.3       4 GLC5        0.0000 
     25 CA         -2.1000   11.0600   25.3870 C.3      12 GLL5        0.0000 
     26 CA         -2.0480   11.3225   23.2210 C.3       4 GLC5        0.0000 
     27 O           3.6395   11.8915   18.0865 O.2       1 ALC1        0.0000 
     28 O           4.8180   11.8110   18.7050 O.2       9 ALL1        0.0000 
     29 O           2.4610   11.9720   17.4680 O.2       5 ALP1        0.0000 
     30 N           7.7980    8.7500   16.0520 N.am      2 SEC2        0.0000 
     31 N           7.4440    8.2910   17.1800 N.am     10 SEL2        0.0000 
     32 N           8.1520    9.2090   14.9240 N.am      6 SEP2        0.0000 
     33 CA          4.2745    6.9040   18.9000 C.3       4 GLC5        0.0000 
     34 CA          5.6660    7.9190   20.2610 C.3      12 GLL5        0.0000 
     35 CA          2.8830    5.8890   17.5390 C.3       8 GLP5        0.0000 
     36 Zn          4.3605   13.5215   15.2295 Zn        3 ZIC7        0.0000 
     37 Zn          4.4210   13.1540   16.2050 Zn       11 ZIL7        0.0000 
     38 Zn          4.3000   13.8890   14.2540 Zn        7 ZIP7        0.0000 
     39 N           3.4410   12.5630   16.8365 N.am      2 SEC2        0.0000 
     40 N           4.4210   13.1540   16.2050 N.am     10 SEL2        0.0000 
     41 N           2.4610   11.9720   17.4680 N.am      6 SEP2        0.0000 
     42 Zn          5.3510   14.2290   14.6760 Zn        3 ZIC7        0.0000 
     43 Zn          6.4020   14.5690   15.0980 Zn       11 ZIL7        0.0000 
     44 Zn          7.4450   13.9180   15.6725 Zn        3 ZIC7        0.0000 
     45 Zn          8.4880   13.2670   16.2470 Zn        7 ZIP7        0.0000 
     46 O           6.6330   15.6195   15.2610 O.2       1 ALC1        0.0000 
     47 O           6.4020   14.5690   15.0980 O.2       9 ALL1        0.0000 
     48 O           6.8640   16.6700   15.4240 O.2       5 ALP1        0.0000 
     49 CA         -1.4812   13.7508   26.2970 C.3       4 GLC5        0.0000 
     50 CA         -0.8270   12.2690   27.0760 C.3      12 GLL5        0.0000 
     51 CA         -1.5980   15.3000   25.0830 C.3       8 GLP5        0.0000 
     52 CA          1.9463   13.0657   25.4760 C.3       4 GLC5        0.0000 
     53 CA          3.3090   14.2970   26.5370 C.3       8 GLP5        0.0000 
     54 CA         -0.5073   13.5672   24.7490 C.3       4 GLC5        0.0000 
     55 CA          1.0130   11.8590   24.0150 C.3      12 GLL5        0.0000 
     56 CA         -0.7063   11.7098   22.7350 C.3       4 GLC5        0.0000 
     57 CA          1.7023   10.2812   24.7425 C.3       4 GLC5        0.0000 
     58 CA          2.0560   11.9040   23.0210 C.3      12 GLL5        0.0000 
     59 CA          1.8700    8.6810   25.9670 C.3       8 GLP5        0.0000 
     60 CA          3.0168   13.1628   24.8678 C.3       4 GLC5        0.0000 
     61 CA          5.2640   11.7822   24.3777 C.3       4 GLC5        0.0000 
     62 CA          3.3930   12.1530   23.3760 C.3      12 GLL5        0.0000 
     63 CA          3.1710   13.8396   20.9952 C.3       4 GLC5        0.0000 
     64 CA          4.3930   12.1780   22.4330 C.3      12 GLL5        0.0000 
     65 CA          2.8540   15.8050   20.7470 C.3       8 GLP5        0.0000 
     66 CA          1.2745   12.3508   19.5890 C.3       4 GLC5        0.0000 
     67 CA          0.3030   13.0310   17.9710 C.3       8 GLP5        0.0000 
     68 CA          1.5004   13.7861   22.4638 C.3       4 GLC5        0.0000 
     69 CA          0.8940   15.7350   22.3630 C.3       8 GLP5        0.0000 
     70 CA          6.4548    9.0370   15.7540 C.3       4 GLC5        0.0000 
     71 CA          7.3040    8.1430   14.2940 C.3       8 GLP5        0.0000 
     72 CA          0.0069   10.8524   27.3877 C.3       4 GLC5        0.0000 
     73 CA         -0.9260   11.7340   25.7660 C.3      12 GLL5        0.0000 
     74 CA          1.1590    9.7370   28.1370 C.3       8 GLP5        0.0000 
     75 CA         -1.5555   13.3485   25.3297 C.3       4 GLC5        0.0000 
     76 CA         -2.8418    9.4020   24.9490 C.3       4 GLC5        0.0000 
     77 CA         -3.1650   10.9500   26.2790 C.3      12 GLL5        0.0000 
     78 CA         -3.0510    7.7990   24.0650 C.3       8 GLP5        0.0000 
     79 CA          4.0925    7.6723   21.5054 C.3       4 GLC5        0.0000 
     80 CA          6.2290    8.7780   21.4110 C.3      12 GLL5        0.0000 
     81 CA          2.3560    7.1240   21.8340 C.3       8 GLP5        0.0000 
     82 CA         -3.5736   12.4838   25.7194 C.3       4 GLC5        0.0000 
     83 CA         -4.9770   13.5790   25.1420 C.3       8 GLP5        0.0000 
@<TRIPOS>BOND
@<TRIPOS>SUBSTRUCTURE
     1 ALC1       21 GROUP        1 X    ALC  0     ROOT ALC X 1
     2 SEC2       18 GROUP        1 X    SEC  0     **** SEC X 2
     3 ZIC7       36 GROUP        1 X    ZIC  0     **** ZIC X 5
     4 GLC5        1 GROUP        1 X    GLC  0     **** GLC X 6
     5 ALP1       23 GROUP        1 Y    ALP  0     ROOT ALP Y 8
     6 SEP2       20 GROUP        1 Y    SEP  0     **** SEP Y 9
     7 ZIP7       38 GROUP        1 Y    ZIP  0     **** ZIP Y 12
     8 GLP5        3 GROUP        1 Y    GLP  0     **** GLP Y 13
     9 ALL1       22 GROUP        1 Z    ALL  0     ROOT ALL Z 15
    10 SEL2       19 GROUP        1 Z    SEL  0     **** SEL Z 16
    11 ZIL7       37 GROUP        1 Z    ZIL  0     **** ZIL Z 19
    12 GLL5        2 GROUP        1 Z    GLL  0     **** GLL Z 20
@<TRIPOS>SET

