#    Name: 4j3d_1JS_1_ligand
#    Modification time : Tue Mar 25 05:20:00 2014

@<TRIPOS>MOLECULE
4j3d_1JS_1_ligand
   55    56     1     0     0
SMALL
NO_CHARGES


@<TRIPOS>ATOM
      1 C1         -3.0780   11.4870   27.5640 C.ar      1 1JS303      0.0000 
      2 C2         -1.9020   12.1340   27.9460 C.ar      1 1JS303      0.0000 
      3 C3         -0.8270   12.2690   27.0760 C.ar      1 1JS303      0.0000 
      4 C7          0.1540   11.8100   24.8150 C.1       1 1JS303      0.0000 
      5 C8          1.0130   11.8590   24.0150 C.1       1 1JS303      0.0000 
      6 C9          2.0560   11.9040   23.0210 C.ar      1 1JS303      0.0000 
      7 C10         3.3930   12.1530   23.3760 C.ar      1 1JS303      0.0000 
      8 C11         4.3930   12.1780   22.4330 C.ar      1 1JS303      0.0000 
      9 C12         4.0750   11.9510   21.0770 C.ar      1 1JS303      0.0000 
     10 C13         2.7420   11.6840   20.7320 C.ar      1 1JS303      0.0000 
     11 C14         1.7500   11.6570   21.6820 C.ar      1 1JS303      0.0000 
     12 C15         5.1270   11.9790   20.0320 C.2       1 1JS303      0.0000 
     13 C20         5.8460   10.5390   16.8170 C.3       1 1JS303      0.0000 
     14 C21         5.3650    9.3230   17.6110 C.3       1 1JS303      0.0000 
     15 C22         6.5500    8.4550   17.9830 C.2       1 1JS303      0.0000 
     16 C27         5.7550    8.2660   22.7740 C.3       1 1JS303      0.0000 
     17 O28         5.7170    6.8290   22.7470 O.3       1 1JS303      0.0000 
     18 C4         -0.9260   11.7340   25.7660 C.ar      1 1JS303      0.0000 
     19 C5         -2.1000   11.0600   25.3870 C.ar      1 1JS303      0.0000 
     20 C6         -3.1650   10.9500   26.2790 C.ar      1 1JS303      0.0000 
     21 O16         6.2860   12.1440   20.4030 O.2       1 1JS303      0.0000 
     22 N17         4.8180   11.8110   18.7050 N.am      1 1JS303      0.0000 
     23 C18         5.8330   11.8320   17.6150 C.3       1 1JS303      0.0000 
     24 O23         7.4440    8.2910   17.1800 O.2       1 1JS303      0.0000 
     25 N24         6.6530    7.8160   19.1760 N.am      1 1JS303      0.0000 
     26 C25         5.6660    7.9190   20.2610 C.3       1 1JS303      0.0000 
     27 C26         6.2290    8.7780   21.4110 C.3       1 1JS303      0.0000 
     28 C29         5.5620   12.8980   16.5880 C.2       1 1JS303      0.0000 
     29 O30         4.4210   13.1540   16.2050 O.2       1 1JS303      0.0000 
     30 N31         6.6160   13.5680   16.0610 N.am      1 1JS303      0.0000 
     31 O32         6.4020   14.5690   15.0980 O.3       1 1JS303      0.0000 
     32 H          -3.8598   11.4081   28.2124 H         1 1JS303      0.0000 
     33 H          -1.8309   12.5243   28.9070 H         1 1JS303      0.0000 
     34 H           0.0268   12.7437   27.3627 H         1 1JS303      0.0000 
     35 H           3.6168   12.3202   24.3765 H         1 1JS303      0.0000 
     36 H           5.3662   12.3585   22.6958 H         1 1JS303      0.0000 
     37 H           2.5130   11.5047   19.7351 H         1 1JS303      0.0000 
     38 H           0.7748   11.4548   21.4151 H         1 1JS303      0.0000 
     39 H           5.2075   10.6565   15.9270 H         1 1JS303      0.0000 
     40 H           6.8693   10.3457   16.4577 H         1 1JS303      0.0000 
     41 H           4.6706    8.7530   17.0024 H         1 1JS303      0.0000 
     42 H           4.8629    9.6621   18.5112 H         1 1JS303      0.0000 
     43 H           6.4481    8.6369   23.5313 H         1 1JS303      0.0000 
     44 H           4.7689    8.6919   22.9680 H         1 1JS303      0.0000 
     45 H          -2.1678   10.6491   24.4483 H         1 1JS303      0.0000 
     46 H          -4.0285   10.4658   25.9865 H         1 1JS303      0.0000 
     47 H           3.8354   11.6577   18.3955 H         1 1JS303      0.0000 
     48 H           6.8231   11.9848   18.0093 H         1 1JS303      0.0000 
     49 H           7.4780    7.1946   19.3821 H         1 1JS303      0.0000 
     50 H           5.4232    6.9338   20.6621 H         1 1JS303      0.0000 
     51 H           4.7460    8.3873   19.9080 H         1 1JS303      0.0000 
     52 H           7.3172    8.7494   21.3732 H         1 1JS303      0.0000 
     53 H           5.8989    9.8073   21.2774 H         1 1JS303      0.0000 
     54 H           6.4909    6.5391   23.3101 H         1 1JS303      0.0000 
     55 H           7.1243   15.2416   15.2591 H         1 1JS303      0.0000 
@<TRIPOS>BOND
     1    2    1 ar   
     2   20    1 ar   
     3   32    1 1    
     4    3    2 ar   
     5   33    2 1    
     6   18    3 ar   
     7   34    3 1    
     8    5    4 3    
     9   18    4 1    
    10    6    5 1    
    11    7    6 ar   
    12   11    6 ar   
    13    8    7 ar   
    14   35    7 1    
    15    9    8 ar   
    16   36    8 1    
    17   10    9 ar   
    18   12    9 1    
    19   11   10 ar   
    20   37   10 1    
    21   38   11 1    
    22   21   12 2    
    23   22   12 am   
    24   14   13 1    
    25   23   13 1    
    26   39   13 1    
    27   40   13 1    
    28   15   14 1    
    29   41   14 1    
    30   42   14 1    
    31   24   15 2    
    32   25   15 am   
    33   17   16 1    
    34   27   16 1    
    35   43   16 1    
    36   44   16 1    
    37   54   17 1    
    38   19   18 ar   
    39   20   19 ar   
    40   45   19 1    
    41   46   20 1    
    42   23   22 1    
    43   47   22 1    
    44   28   23 1    
    45   48   23 1    
    46   26   25 1    
    47   49   25 1    
    48   27   26 1    
    49   50   26 1    
    50   51   26 1    
    51   52   27 1    
    52   53   27 1    
    53   29   28 2    
    54   30   28 am   
    55   31   30 1    
    56   55   31 1    
@<TRIPOS>SUBSTRUCTURE
     1 1JS303      1 GROUP   
@<TRIPOS>SET

