#    Name: 2vbp_VB1_1_INTS_M
#    Modification time : Tue Mar 25 01:24:19 2014

@<TRIPOS>MOLECULE
2vbp_VB1_1_INTS_M
   56     0     9     0     0
SMALL
NO_CHARGES


@<TRIPOS>ATOM
      1 CA          7.9335    4.3020    9.6125 C.3       3 GLC5        0.0000 
      2 CA          6.8780    2.7960    8.9520 C.3       9 GLL5        0.0000 
      3 CA          8.9890    5.8080   10.2730 C.3       6 GLP5        0.0000 
      4 CA          8.8760    2.6635    8.7110 C.3       3 GLC5        0.0000 
      5 CA         10.8740    2.5310    8.4700 C.3       6 GLP5        0.0000 
      6 CA          4.3495    1.3240    7.7610 C.3       3 GLC5        0.0000 
      7 CA          6.1970    1.5600    8.3190 C.3       9 GLL5        0.0000 
      8 CA          2.5020    1.0880    7.2030 C.3       6 GLP5        0.0000 
      9 CA         12.3070   -3.8705    9.3650 C.3       3 GLC5        0.0000 
     10 CA         11.1070   -5.4100    9.3810 C.3       9 GLL5        0.0000 
     11 CA         13.5070   -2.3310    9.3490 C.3       6 GLP5        0.0000 
     12 CA          9.9080   -7.1990    9.7755 C.3       3 GLC5        0.0000 
     13 CA          8.7090   -8.9880   10.1700 C.3       6 GLP5        0.0000 
     14 CA          4.3175    0.1045    7.6680 C.3       3 GLC5        0.0000 
     15 CA          6.1330   -0.8790    8.1330 C.3       9 GLL5        0.0000 
     16 CA          4.9330   -2.4925    7.9195 C.3       3 GLC5        0.0000 
     17 CA          3.7330   -4.1060    7.7060 C.3       6 GLP5        0.0000 
     18 CA          8.8565   -2.5515    5.1585 C.3       3 GLC5        0.0000 
     19 CA          8.5130   -4.3630    5.3210 C.3       9 GLL5        0.0000 
     20 CA          9.2000   -0.7400    4.9960 C.3       6 GLP5        0.0000 
     21 NZ          5.4285    5.3720    6.7470 N.4       2 LYC4        0.0000 
     22 NZ          6.0360    4.2020    7.1690 N.4       8 LYL4        0.0000 
     23 NZ          4.0320    7.1970    7.1530 N.4       5 LYP4        0.0000 
     24 N           5.4285    5.3720    6.7470 N.am      1 SEC2        0.0000 
     25 N           6.0360    4.2020    7.1690 N.am      7 SEL2        0.0000 
     26 N           4.8210    6.5420    6.3250 N.am      4 SEP2        0.0000 
     27 N           7.1395    4.5230    6.4560 N.am      1 SEC2        0.0000 
     28 N           8.2430    4.8440    5.7430 N.am      4 SEP2        0.0000 
     29 NZ          4.5535    5.6020    8.8180 N.4       2 LYC4        0.0000 
     30 NZ          5.3010    4.5110    9.2920 N.4       8 LYL4        0.0000 
     31 N           4.5535    5.6020    8.8180 N.am      1 SEC2        0.0000 
     32 N           5.3010    4.5110    9.2920 N.am      7 SEL2        0.0000 
     33 N           3.8060    6.6930    8.3440 N.am      4 SEP2        0.0000 
     34 CA         12.3970   -4.8880   13.0435 C.3       3 GLC5        0.0000 
     35 CA         10.6780   -4.8500   11.8550 C.3       9 GLL5        0.0000 
     36 CA         14.1160   -4.9260   14.2320 C.3       6 GLP5        0.0000 
     37 CA          9.0145   -4.6135   12.5265 C.3       3 GLC5        0.0000 
     38 CA          7.3510   -4.3770   13.1980 C.3       6 GLP5        0.0000 
     39 CA         12.9405   -6.7465   11.2715 C.3       3 GLC5        0.0000 
     40 CA         11.1650   -5.9030   10.8480 C.3       9 GLL5        0.0000 
     41 CA         14.7160   -7.5900   11.6950 C.3       6 GLP5        0.0000 
     42 N          13.2905   -7.0420    9.9505 N.am      1 SEC2        0.0000 
     43 N          13.2330   -6.3390    8.5510 N.am      7 SEL2        0.0000 
     44 N          13.3480   -7.7450   11.3500 N.am      4 SEP2        0.0000 
     45 CA          7.8131    0.2869    6.9365 C.3       3 GLC5        0.0000 
     46 CA          6.8740    0.2690    8.8150 C.3       9 GLL5        0.0000 
     47 CA          9.2920    0.5560    5.5230 C.3       6 GLP5        0.0000 
     48 CA          7.3750   -6.3237    8.1370 C.3       3 GLC5        0.0000 
     49 CA          7.7430   -4.3220    8.0670 C.3       9 GLL5        0.0000 
     50 CA          6.9970   -7.8900    8.8420 C.3       6 GLP5        0.0000 
     51 CA          5.7430   -4.4318    7.5690 C.3       3 GLC5        0.0000 
     52 CA          7.7630   -5.1930    6.7970 C.3       9 GLL5        0.0000 
     53 CA          7.0860   -6.0905    5.3805 C.3       3 GLC5        0.0000 
     54 CA          6.0340   -7.4030    4.7020 C.3       6 GLP5        0.0000 
     55 CA          9.5488   -6.8762   11.3183 C.3       3 GLC5        0.0000 
     56 CA          8.1760   -8.3760   11.2850 C.3       6 GLP5        0.0000 
@<TRIPOS>BOND
@<TRIPOS>SUBSTRUCTURE
     1 SEC2       24 GROUP        1 X    SEC  0     ROOT SEC X 2
     2 LYC4       21 GROUP        1 X    LYC  0     **** LYC X 4
     3 GLC5        1 GROUP        1 X    GLC  0     **** GLC X 6
     4 SEP2       26 GROUP        1 Y    SEP  0     ROOT SEP Y 9
     5 LYP4       23 GROUP        1 Y    LYP  0     **** LYP Y 11
     6 GLP5        3 GROUP        1 Y    GLP  0     **** GLP Y 13
     7 SEL2       25 GROUP        1 Z    SEL  0     ROOT SEL Z 16
     8 LYL4       22 GROUP        1 Z    LYL  0     **** LYL Z 18
     9 GLL5        2 GROUP        1 Z    GLL  0     **** GLL Z 20
@<TRIPOS>SET

