#    Name: 2vbp_VB1_1_ligand
#    Modification time : Tue Mar 25 01:24:19 2014

@<TRIPOS>MOLECULE
2vbp_VB1_1_ligand
   44    43     1     0     0
SMALL
NO_CHARGES


@<TRIPOS>ATOM
      1 C1          5.9780    3.9320    8.3990 C.2       1 VB11333     0.0000 
      2 C2          6.8780    2.7960    8.9520 C.3       1 VB11333     0.0000 
      3 C3          6.1970    1.5600    8.3190 C.3       1 VB11333     0.0000 
      4 CAV        11.1070   -5.4100    9.3810 C.3       1 VB11333     0.0000 
      5 C4          6.8740    0.2690    8.8150 C.3       1 VB11333     0.0000 
      6 C7          6.1330   -0.8790    8.1330 C.3       1 VB11333     0.0000 
      7 C10         6.6860   -2.2100    8.6290 C.2       1 VB11333     0.0000 
      8 N11         7.1990   -2.9660    7.7060 N.am      1 VB11333     0.0000 
      9 C12         7.7430   -4.3220    8.0670 C.3       1 VB11333     0.0000 
     10 C13         9.1590   -4.1930    8.5450 C.2       1 VB11333     0.0000 
     11 N14         6.8300    2.7570   10.4430 N.4       1 VB11333     0.0000 
     12 O15         6.7090   -2.5690    9.8060 O.2       1 VB11333     0.0000 
     13 C16         7.7630   -5.1930    6.7970 C.3       1 VB11333     0.0000 
     14 S17         8.5130   -4.3630    5.3210 S.3       1 VB11333     0.0000 
     15 O18         9.7440   -3.1220    8.5880 O.2       1 VB11333     0.0000 
     16 O19         6.0360    4.2020    7.1690 O.co2     1 VB11333     0.0000 
     17 O20         5.3010    4.5110    9.2920 O.co2     1 VB11333     0.0000 
     18 N29         9.7300   -5.3640    8.9040 N.am      1 VB11333     0.0000 
     19 C31        11.9950   -6.1700    8.3290 C.2       1 VB11333     0.0000 
     20 C32        10.6780   -4.8500   11.8550 C.3       1 VB11333     0.0000 
     21 C33        11.1650   -5.9030   10.8480 C.3       1 VB11333     0.0000 
     22 O42        11.3990   -6.5100    7.2590 O.co2     1 VB11333     0.0000 
     23 O43        13.2330   -6.3390    8.5510 O.co2     1 VB11333     0.0000 
     24 H           7.8308    2.9016    8.5564 H         1 VB11333     0.0000 
     25 H           6.2858    1.6203    7.2418 H         1 VB11333     0.0000 
     26 H           5.1522    1.5483    8.6019 H         1 VB11333     0.0000 
     27 H          11.4878   -4.3505    9.3845 H         1 VB11333     0.0000 
     28 H           6.7624    0.1950    9.8736 H         1 VB11333     0.0000 
     29 H           7.8981    0.2688    8.5154 H         1 VB11333     0.0000 
     30 H           6.2706   -0.8081    7.0602 H         1 VB11333     0.0000 
     31 H           5.0772   -0.8159    8.3700 H         1 VB11333     0.0000 
     32 H           7.2759   -2.7248    6.7105 H         1 VB11333     0.0000 
     33 H           7.1431   -4.7873    8.7946 H         1 VB11333     0.0000 
     34 H           6.7839   -5.4431    6.4294 H         1 VB11333     0.0000 
     35 H           8.3768   -6.0715    6.8854 H         1 VB11333     0.0000 
     36 H           9.2246   -6.2613    8.8569 H         1 VB11333     0.0000 
     37 H          12.1983   -6.1766   11.0854 H         1 VB11333     0.0000 
     38 H          10.5467   -6.8020   10.9405 H         1 VB11333     0.0000 
     39 H           6.4936    1.8780   10.7809 H         1 VB11333     0.0000 
     40 H           7.7332    2.9003   10.8476 H         1 VB11333     0.0000 
     41 H           6.2273    3.4636   10.8138 H         1 VB11333     0.0000 
     42 H          10.7266   -5.1854   12.7958 H         1 VB11333     0.0000 
     43 H          11.2260   -4.0146   11.8130 H         1 VB11333     0.0000 
     44 H           9.7282   -4.5863   11.6865 H         1 VB11333     0.0000 
@<TRIPOS>BOND
     1    2    1 1    
     2   16    1 ar   
     3   17    1 ar   
     4    3    2 1    
     5   11    2 1    
     6   24    2 1    
     7    5    3 1    
     8   25    3 1    
     9   26    3 1    
    10   18    4 1    
    11   19    4 1    
    12   21    4 1    
    13   27    4 1    
    14    6    5 1    
    15   28    5 1    
    16   29    5 1    
    17    7    6 1    
    18   30    6 1    
    19   31    6 1    
    20    8    7 am   
    21   12    7 2    
    22    9    8 1    
    23   32    8 1    
    24   10    9 1    
    25   13    9 1    
    26   33    9 1    
    27   15   10 2    
    28   18   10 am   
    29   39   11 1    
    30   40   11 1    
    31   41   11 1    
    32   14   13 1    
    33   34   13 1    
    34   35   13 1    
    35   36   18 1    
    36   22   19 ar   
    37   23   19 ar   
    38   21   20 1    
    39   42   20 1    
    40   43   20 1    
    41   44   20 1    
    42   37   21 1    
    43   38   21 1    
@<TRIPOS>SUBSTRUCTURE
     1 VB11333     1 GROUP   
@<TRIPOS>SET

