#    Name: 1d7r_5PA_1_INTS_M
#    Modification time : Mon Mar 24 21:33:25 2014

@<TRIPOS>MOLECULE
1d7r_5PA_1_INTS_M
   62     0     9     0     0
SMALL
NO_CHARGES


@<TRIPOS>ATOM
      1 CA         17.5060   53.0885   17.8915 C.3       3 GLC5        0.0000 
      2 CA         16.8030   51.4230   17.7350 C.3       9 GLL5        0.0000 
      3 CA         18.2090   54.7540   18.0480 C.3       6 GLP5        0.0000 
      4 N          20.0620   47.2825   14.6130 N.am      1 SEC2        0.0000 
      5 N          19.5400   47.1280   16.2720 N.am      7 SEL2        0.0000 
      6 N          20.5840   47.4370   12.9540 N.am      4 SEP2        0.0000 
      7 N          21.7410   49.2680   14.8270 N.am      1 SEC2        0.0000 
      8 N          21.4070   48.6940   16.1260 N.am      7 SEL2        0.0000 
      9 N          22.0750   49.8420   13.5280 N.am      4 SEP2        0.0000 
     10 CA         19.7915   49.8845   14.3445 C.3       3 GLC5        0.0000 
     11 CA         19.4470   51.0150   16.1630 C.3       9 GLL5        0.0000 
     12 CA         20.1360   48.7540   12.5260 C.3       6 GLP5        0.0000 
     13 CA         18.8280   52.8845   17.1055 C.3       3 GLC5        0.0000 
     14 N          17.6770   54.1255   12.8590 N.am      1 SEC2        0.0000 
     15 N          17.5570   53.2930   13.9670 N.am      7 SEL2        0.0000 
     16 N          17.7970   54.9580   11.7510 N.am      4 SEP2        0.0000 
     17 CA         16.8940   51.7460   13.3990 C.3       3 GLC5        0.0000 
     18 CA         18.5050   52.4790   14.4770 C.3       9 GLL5        0.0000 
     19 CA         15.2830   51.0130   12.3210 C.3       6 GLP5        0.0000 
     20 CA         18.2960   54.6655   14.6645 C.3       3 GLC5        0.0000 
     21 CA         16.3790   53.5420   14.6080 C.3       9 GLL5        0.0000 
     22 CA         20.2130   55.7890   14.7210 C.3       6 GLP5        0.0000 
     23 CA         14.9955   56.1645   13.2985 C.3       3 GLC5        0.0000 
     24 CA         15.4190   54.4930   13.9490 C.3       9 GLL5        0.0000 
     25 CA         14.5720   57.8360   12.6480 C.3       6 GLP5        0.0000 
     26 CA         13.9880   52.4230   15.5865 C.3       3 GLC5        0.0000 
     27 CA         16.1290   52.8930   15.8640 C.3       9 GLL5        0.0000 
     28 CA         11.8470   51.9530   15.3090 C.3       6 GLP5        0.0000 
     29 N          13.5755   52.6275   17.0725 N.am      1 SEC2        0.0000 
     30 N          14.9320   53.1470   16.4490 N.am      7 SEL2        0.0000 
     31 N          12.2190   52.1080   17.6960 N.am      4 SEP2        0.0000 
     32 CA         17.8700   53.1530   20.0845 C.3       3 GLC5        0.0000 
     33 CA         16.4200   51.7700   20.1920 C.3       9 GLL5        0.0000 
     34 CA         19.3200   54.5360   19.9770 C.3       6 GLP5        0.0000 
     35 NZ         14.1385   50.5350   19.4200 N.4       2 LYC4        0.0000 
     36 NZ         14.0250   51.6640   20.5390 N.4       8 LYL4        0.0000 
     37 NZ         14.2520   49.4060   18.3010 N.4       5 LYP4        0.0000 
     38 NZ         13.0390   52.4175   21.3970 N.4       2 LYC4        0.0000 
     39 NZ         11.2640   53.9600   21.5220 N.4       5 LYP4        0.0000 
     40 N          13.8030   50.4070   21.5830 N.am      1 SEC2        0.0000 
     41 N          14.0250   51.6640   20.5390 N.am      7 SEL2        0.0000 
     42 N          13.5810   49.1500   22.6270 N.am      4 SEP2        0.0000 
     43 N          13.0390   52.4175   21.3970 N.am      1 SEC2        0.0000 
     44 N          12.0530   53.1710   22.2550 N.am      4 SEP2        0.0000 
     45 NZ         13.5985   53.2800   21.8015 N.4       2 LYC4        0.0000 
     46 NZ         15.1440   53.3890   21.3480 N.4       8 LYL4        0.0000 
     47 N          13.5985   53.2800   21.8015 N.am      1 SEC2        0.0000 
     48 N          15.1440   53.3890   21.3480 N.am      7 SEL2        0.0000 
     49 CA         15.7300   48.7265   21.1395 C.3       3 GLC5        0.0000 
     50 CA         16.8430   50.3280   20.5090 C.3       9 GLL5        0.0000 
     51 CA         14.6170   47.1250   21.7700 C.3       6 GLP5        0.0000 
     52 CA         18.7570   52.7455   21.1905 C.3       3 GLC5        0.0000 
     53 CA         17.4140   51.4050   21.3120 C.3       9 GLL5        0.0000 
     54 CA         20.1000   54.0860   21.0690 C.3       6 GLP5        0.0000 
     55 CA         20.5715   52.4560   16.3942 C.3       3 GLC5        0.0000 
     56 CA         18.2790   51.8710   15.6740 C.3       9 GLL5        0.0000 
     57 CA         22.2800   53.4690   16.8700 C.3       6 GLP5        0.0000 
     58 CA         19.3025   53.9820   14.8983 C.3       3 GLC5        0.0000 
     59 CA         15.6485   52.2341   13.6961 C.3       3 GLC5        0.0000 
     60 CA         15.8518   50.8348   16.5319 C.3       3 GLC5        0.0000 
     61 CA         14.8350   49.3200   16.9410 C.3       6 GLP5        0.0000 
     62 CA         15.7333   50.1845   18.6457 C.3       3 GLC5        0.0000 
@<TRIPOS>BOND
@<TRIPOS>SUBSTRUCTURE
     1 SEC2        4 GROUP        1 X    SEC  0     ROOT SEC X 2
     2 LYC4       35 GROUP        1 X    LYC  0     **** LYC X 4
     3 GLC5        1 GROUP        1 X    GLC  0     **** GLC X 6
     4 SEP2        6 GROUP        1 Y    SEP  0     ROOT SEP Y 9
     5 LYP4       37 GROUP        1 Y    LYP  0     **** LYP Y 11
     6 GLP5        3 GROUP        1 Y    GLP  0     **** GLP Y 13
     7 SEL2        5 GROUP        1 Z    SEL  0     ROOT SEL Z 16
     8 LYL4       36 GROUP        1 Z    LYL  0     **** LYL Z 18
     9 GLL5        2 GROUP        1 Z    GLL  0     **** GLL Z 20
@<TRIPOS>SET

