#    Name: 1d7r_5PA_1_ligand
#    Modification time : Mon Mar 24 21:33:26 2014

@<TRIPOS>MOLECULE
1d7r_5PA_1_ligand
   35    36     1     0     0
SMALL
NO_CHARGES


@<TRIPOS>ATOM
      1 C4         17.0720   52.0600   16.4430 C.ar      1 5PA500      0.0000 
      2 C4A        16.8030   51.4230   17.7350 C.3       1 5PA500      0.0000 
      3 P          20.0440   48.5540   16.6430 P.3       1 5PA500      0.0000 
      4 O1P        19.7030   48.8970   18.0690 O.co2     1 5PA500      0.0000 
      5 O2P        19.5400   47.1280   16.2720 O.co2     1 5PA500      0.0000 
      6 O3P        21.4070   48.6940   16.1260 O.co2     1 5PA500      0.0000 
      7 O4P        19.2710   49.6650   15.7670 O.3       1 5PA500      0.0000 
      8 C5A        19.4470   51.0150   16.1630 C.3       1 5PA500      0.0000 
      9 C5         18.2790   51.8710   15.6740 C.ar      1 5PA500      0.0000 
     10 N1         17.5570   53.2930   13.9670 N.ar      1 5PA500      0.0000 
     11 C6         18.5050   52.4790   14.4770 C.ar      1 5PA500      0.0000 
     12 C2         16.3790   53.5420   14.6080 C.ar      1 5PA500      0.0000 
     13 C2A        15.4190   54.4930   13.9490 C.3       1 5PA500      0.0000 
     14 C3         16.1290   52.8930   15.8640 C.ar      1 5PA500      0.0000 
     15 O3         14.9320   53.1470   16.4490 O.3       1 5PA500      0.0000 
     16 N          16.9280   52.1250   18.8180 N.4       1 5PA500      0.0000 
     17 C8         16.4200   51.7700   20.1920 C.3       1 5PA500      0.0000 
     18 C7         15.1350   52.3280   20.7210 C.2       1 5PA500      0.0000 
     19 O7         14.0250   51.6640   20.5390 O.co2     1 5PA500      0.0000 
     20 O8         15.1440   53.3890   21.3480 O.co2     1 5PA500      0.0000 
     21 C9         16.8430   50.3280   20.5090 C.3       1 5PA500      0.0000 
     22 C10        17.4140   51.4050   21.3120 C.3       1 5PA500      0.0000 
     23 H          17.4527   50.4641   17.7548 H         1 5PA500      0.0000 
     24 H          15.7516   50.9465   17.6384 H         1 5PA500      0.0000 
     25 H          20.3702   51.4478   15.7497 H         1 5PA500      0.0000 
     26 H          19.4984   51.1193   17.2571 H         1 5PA500      0.0000 
     27 H          19.3909   52.3161   13.9708 H         1 5PA500      0.0000 
     28 H          17.4615   50.0620   19.8314 H         1 5PA500      0.0000 
     29 H          16.1177   49.9198   20.9777 H         1 5PA500      0.0000 
     30 H          16.9413   51.4827   22.1372 H         1 5PA500      0.0000 
     31 H          18.2851   51.6249   20.9909 H         1 5PA500      0.0000 
     32 H          15.8219   55.3996   13.8231 H         1 5PA500      0.0000 
     33 H          15.1370   54.1696   13.0457 H         1 5PA500      0.0000 
     34 H          14.5867   54.6147   14.4898 H         1 5PA500      0.0000 
     35 H          14.9378   54.1297   16.6340 H         1 5PA500      0.0000 
@<TRIPOS>BOND
     1    2    1 1    
     2    9    1 ar   
     3   14    1 ar   
     4   16    2 1    
     5   23    2 1    
     6   24    2 1    
     7    4    3 ar   
     8    5    3 ar   
     9    6    3 ar   
    10    7    3 1    
    11    8    7 1    
    12    9    8 1    
    13   25    8 1    
    14   26    8 1    
    15   11    9 ar   
    16   11   10 ar   
    17   12   10 ar   
    18   27   11 1    
    19   13   12 1    
    20   14   12 ar   
    21   32   13 1    
    22   33   13 1    
    23   34   13 1    
    24   15   14 1    
    25   35   15 1    
    26   17   16 1    
    27   18   17 1    
    28   21   17 1    
    29   22   17 1    
    30   19   18 ar   
    31   20   18 ar   
    32   22   21 1    
    33   28   21 1    
    34   29   21 1    
    35   30   22 1    
    36   31   22 1    
@<TRIPOS>SUBSTRUCTURE
     1 5PA500      1 GROUP   
@<TRIPOS>SET

