#    Name: 4brk_UNP_2_INTS_M
#    Modification time : Tue Mar 25 08:19:43 2014

@<TRIPOS>MOLECULE
4brk_UNP_2_INTS_M
   58     0    12     0     0
SMALL
NO_CHARGES


@<TRIPOS>ATOM
      1 N         -16.0370    0.3555   10.0330 N.am      1 SEC2        0.0000 
      2 N         -17.2390    0.9730    9.5940 N.am      9 SEL2        0.0000 
      3 N         -14.8350   -0.2620   10.4720 N.am      5 SEP2        0.0000 
      4 N         -16.4230    1.4135   10.8540 N.am      1 SEC2        0.0000 
      5 N         -15.6070    1.8540   12.1140 N.am      5 SEP2        0.0000 
      6 Zn        -20.4820    0.5970    8.3580 Zn        3 ZIC7        0.0000 
      7 Zn        -19.6000    0.9080    8.7520 Zn       11 ZIL7        0.0000 
      8 Zn        -21.3640    0.2860    7.9640 Zn        7 ZIP7        0.0000 
      9 N         -17.2300    1.1095    6.1140 N.am      1 SEC2        0.0000 
     10 N         -17.7880    1.7100    7.2400 N.am      9 SEL2        0.0000 
     11 N         -16.6720    0.5090    4.9880 N.am      5 SEP2        0.0000 
     12 N         -18.5240    2.6925    6.7210 N.am      1 SEC2        0.0000 
     13 N         -19.2600    3.6750    6.2020 N.am      5 SEP2        0.0000 
     14 N         -17.2630   -0.1285    6.4255 N.am      1 SEC2        0.0000 
     15 N         -17.8540   -0.7660    7.8630 N.am      9 SEL2        0.0000 
     16 N         -17.3915   -1.4560    9.0970 N.am      1 SEC2        0.0000 
     17 N         -16.9290   -2.1460   10.3310 N.am      5 SEP2        0.0000 
     18 NZ        -19.1905   -2.8390    4.8135 N.4       2 LYC4        0.0000 
     19 NZ        -18.3010   -2.3500    5.8520 N.4      10 LYL4        0.0000 
     20 NZ        -21.1450   -2.5740    3.5210 N.4       6 LYP4        0.0000 
     21 N         -17.1140   -2.2425    5.1235 N.am      1 SEC2        0.0000 
     22 N         -18.3010   -2.3500    5.8520 N.am      9 SEL2        0.0000 
     23 N         -15.9270   -2.1350    4.3950 N.am      5 SEP2        0.0000 
     24 N         -17.8690   -3.5135    5.4265 N.am      1 SEC2        0.0000 
     25 N         -17.4370   -4.6770    5.0010 N.am      5 SEP2        0.0000 
     26 N         -19.1905   -2.8390    4.8135 N.am      1 SEC2        0.0000 
     27 N         -20.0800   -3.3280    3.7750 N.am      5 SEP2        0.0000 
     28 NZ        -20.8520   -1.3260    5.5890 N.4       2 LYC4        0.0000 
     29 NZ        -20.2840   -1.1420    6.8990 N.4      10 LYL4        0.0000 
     30 Zn        -20.8240   -0.4280    7.4315 Zn        3 ZIC7        0.0000 
     31 Zn        -20.2840   -1.1420    6.8990 Zn       11 ZIL7        0.0000 
     32 N         -20.8520   -1.3260    5.5890 N.am      1 SEC2        0.0000 
     33 N         -20.2840   -1.1420    6.8990 N.am      9 SEL2        0.0000 
     34 N         -21.4200   -1.5100    4.2790 N.am      5 SEP2        0.0000 
     35 N         -18.0435   -2.5520    9.2460 N.am      1 SEC2        0.0000 
     36 N         -19.1580   -2.9580    8.1610 N.am      9 SEL2        0.0000 
     37 NZ        -20.8865   -3.5055    5.1560 N.4       2 LYC4        0.0000 
     38 NZ        -20.6280   -4.4370    6.7910 N.4      10 LYL4        0.0000 
     39 CA        -16.8430   -5.1685    7.1855 C.3       4 GLC5        0.0000 
     40 CA        -18.4140   -5.8580    8.1970 C.3      12 GLL5        0.0000 
     41 CA        -15.2720   -4.4790    6.1740 C.3       8 GLP5        0.0000 
     42 CA        -16.0250   -6.1345    7.3190 C.3       4 GLC5        0.0000 
     43 CA        -16.7780   -7.7900    8.4640 C.3      12 GLL5        0.0000 
     44 CA        -15.9855  -10.4775    7.8795 C.3       4 GLC5        0.0000 
     45 CA        -16.9480   -9.2380    8.9330 C.3      12 GLL5        0.0000 
     46 CA        -15.0230  -11.7170    6.8260 C.3       8 GLP5        0.0000 
     47 CA        -19.8535   -8.2395   10.0435 C.3       4 GLC5        0.0000 
     48 CA        -18.4370   -9.4120    8.9260 C.3      12 GLL5        0.0000 
     49 CA        -21.2700   -7.0670   11.1610 C.3       8 GLP5        0.0000 
     50 CA        -20.2605   -9.4365    8.6795 C.3       4 GLC5        0.0000 
     51 CA        -22.0840   -9.4610    8.4330 C.3       8 GLP5        0.0000 
     52 CA        -19.7510   -6.7723    9.8782 C.3       4 GLC5        0.0000 
     53 CA        -18.0500   -7.0970    8.9940 C.3      12 GLL5        0.0000 
     54 CA        -20.9535   -9.2317    6.7283 C.3       4 GLC5        0.0000 
     55 CA        -19.3060   -9.5090    6.5980 C.3      12 GLL5        0.0000 
     56 CA        -22.3310   -8.5650    7.3850 C.3       8 GLP5        0.0000 
     57 CA        -18.3185  -11.2108    5.6052 C.3       4 GLC5        0.0000 
     58 CA        -17.0610  -12.5230    5.1390 C.3       8 GLP5        0.0000 
@<TRIPOS>BOND
@<TRIPOS>SUBSTRUCTURE
     1 SEC2        1 GROUP        1 X    SEC  0     ROOT SEC X 2
     2 LYC4       18 GROUP        1 X    LYC  0     **** LYC X 4
     3 ZIC7        6 GROUP        1 X    ZIC  0     **** ZIC X 5
     4 GLC5       39 GROUP        1 X    GLC  0     **** GLC X 6
     5 SEP2        3 GROUP        1 Y    SEP  0     ROOT SEP Y 9
     6 LYP4       20 GROUP        1 Y    LYP  0     **** LYP Y 11
     7 ZIP7        8 GROUP        1 Y    ZIP  0     **** ZIP Y 12
     8 GLP5       41 GROUP        1 Y    GLP  0     **** GLP Y 13
     9 SEL2        2 GROUP        1 Z    SEL  0     ROOT SEL Z 16
    10 LYL4       19 GROUP        1 Z    LYL  0     **** LYL Z 18
    11 ZIL7        7 GROUP        1 Z    ZIL  0     **** ZIL Z 19
    12 GLL5       40 GROUP        1 Z    GLL  0     **** GLL Z 20
@<TRIPOS>SET

