#    Name: 4brk_UNP_2_ligand
#    Modification time : Tue Mar 25 08:19:43 2014

@<TRIPOS>MOLECULE
4brk_UNP_2_ligand
   40    41     1     0     0
SMALL
NO_CHARGES


@<TRIPOS>ATOM
      1 O2G       -17.2390    0.9730    9.5940 O.co2     1 UNP1397     0.0000 
      2 PG        -18.1460    0.8050    8.4090 P.3       1 UNP1397     0.0000 
      3 O3G       -19.6000    0.9080    8.7520 O.co2     1 UNP1397     0.0000 
      4 O1G       -17.7880    1.7100    7.2400 O.co2     1 UNP1397     0.0000 
      5 N2B       -17.8540   -0.7660    7.8630 N.3       1 UNP1397     0.0000 
      6 PB        -18.9330   -1.7920    7.0780 P.3       1 UNP1397     0.0000 
      7 O1B       -18.3010   -2.3500    5.8520 O.co2     1 UNP1397     0.0000 
      8 O3B       -20.2840   -1.1420    6.8990 O.co2     1 UNP1397     0.0000 
      9 O3A       -19.1580   -2.9580    8.1610 O.3       1 UNP1397     0.0000 
     10 PA        -20.3020   -4.0910    8.2060 P.3       1 UNP1397     0.0000 
     11 O1A       -21.3600   -3.6700    9.1450 O.co2     1 UNP1397     0.0000 
     12 O2A       -20.6280   -4.4370    6.7910 O.co2     1 UNP1397     0.0000 
     13 O5'       -19.5400   -5.3080    8.9090 O.3       1 UNP1397     0.0000 
     14 C5'       -18.4140   -5.8580    8.1970 C.3       1 UNP1397     0.0000 
     15 C4'       -18.0500   -7.0970    8.9940 C.3       1 UNP1397     0.0000 
     16 O4'       -19.0530   -8.1090    8.8640 O.3       1 UNP1397     0.0000 
     17 C3'       -16.7780   -7.7900    8.4640 C.3       1 UNP1397     0.0000 
     18 O3'       -15.6050   -7.1280    8.9390 O.3       1 UNP1397     0.0000 
     19 C2'       -16.9480   -9.2380    8.9330 C.3       1 UNP1397     0.0000 
     20 O2'       -16.6330   -9.3390   10.3220 O.3       1 UNP1397     0.0000 
     21 C1'       -18.4370   -9.4120    8.9260 C.3       1 UNP1397     0.0000 
     22 N1        -18.9460  -10.1260    7.7710 N.am      1 UNP1397     0.0000 
     23 C2        -19.1490  -11.5420    7.9310 C.2       1 UNP1397     0.0000 
     24 O2        -18.8530  -12.1050    9.0110 O.2       1 UNP1397     0.0000 
     25 N3        -19.6780  -12.2410    6.9360 N.am      1 UNP1397     0.0000 
     26 C6        -19.3060   -9.5090    6.5980 C.2       1 UNP1397     0.0000 
     27 C5        -19.8460  -10.2880    5.5450 C.2       1 UNP1397     0.0000 
     28 C4        -20.0250  -11.6610    5.7570 C.2       1 UNP1397     0.0000 
     29 O4        -20.4960  -12.3810    4.8360 O.2       1 UNP1397     0.0000 
     30 H         -17.5758   -5.1895    8.1982 H         1 UNP1397     0.0000 
     31 H         -18.6777   -6.1547    7.2011 H         1 UNP1397     0.0000 
     32 H         -17.8852   -6.8529   10.0177 H         1 UNP1397     0.0000 
     33 H         -16.8621   -7.7855    7.3865 H         1 UNP1397     0.0000 
     34 H         -16.4987   -9.8932    8.3234 H         1 UNP1397     0.0000 
     35 H         -18.7470   -9.9034    9.8342 H         1 UNP1397     0.0000 
     36 H         -19.8400  -13.2794    7.0490 H         1 UNP1397     0.0000 
     37 H         -19.1937   -8.5024    6.4670 H         1 UNP1397     0.0000 
     38 H         -20.0937   -9.8567    4.6651 H         1 UNP1397     0.0000 
     39 H         -14.8590   -7.4913    8.3809 H         1 UNP1397     0.0000 
     40 H         -16.1781   -8.4775   10.5473 H         1 UNP1397     0.0000 
@<TRIPOS>BOND
     1    2    1 ar   
     2    3    2 ar   
     3    4    2 ar   
     4    5    2 1    
     5    6    5 1    
     6    7    6 ar   
     7    8    6 ar   
     8    9    6 1    
     9   10    9 1    
    10   11   10 ar   
    11   12   10 ar   
    12   13   10 1    
    13   14   13 1    
    14   15   14 1    
    15   30   14 1    
    16   31   14 1    
    17   16   15 1    
    18   17   15 1    
    19   32   15 1    
    20   21   16 1    
    21   18   17 1    
    22   19   17 1    
    23   33   17 1    
    24   39   18 1    
    25   20   19 1    
    26   21   19 1    
    27   34   19 1    
    28   40   20 1    
    29   22   21 1    
    30   35   21 1    
    31   23   22 1    
    32   26   22 1    
    33   24   23 2    
    34   25   23 1    
    35   28   25 1    
    36   36   25 1    
    37   27   26 2    
    38   37   26 1    
    39   28   27 1    
    40   38   27 1    
    41   29   28 2    
@<TRIPOS>SUBSTRUCTURE
     1 UNP1397     1 GROUP   
@<TRIPOS>SET

