#    Name: 1zsn_TN2_2_INTS_M
#    Modification time : Mon Mar 24 17:49:19 2014

@<TRIPOS>MOLECULE
1zsn_TN2_2_INTS_M
   57     0     9     0     0
SMALL
NO_CHARGES


@<TRIPOS>ATOM
      1 N           7.0325  104.7215   25.5030 N.am      2 SEC2        0.0000 
      2 N           7.7200  103.6660   24.8460 N.am      8 SEL2        0.0000 
      3 N           6.3450  105.7770   26.1600 N.am      5 SEP2        0.0000 
      4 N           8.1345  104.9765   24.3260 N.am      2 SEC2        0.0000 
      5 N           8.5490  106.2870   23.8060 N.am      5 SEP2        0.0000 
      6 CA          9.0605  103.9325   26.1715 C.3       3 GLC5        0.0000 
      7 CA          9.0870  101.7210   26.1860 C.3       9 GLL5        0.0000 
      8 CA          9.0340  106.1440   26.1570 C.3       6 GLP5        0.0000 
      9 CA         11.1200  102.0675   28.0645 C.3       3 GLC5        0.0000 
     10 CA          9.9460  100.5750   28.5260 C.3       9 GLL5        0.0000 
     11 CA         12.2940  103.5600   27.6030 C.3       6 GLP5        0.0000 
     12 CA          8.3600   99.8795   28.3030 C.3       3 GLC5        0.0000 
     13 CA          6.7740   99.1840   28.0800 C.3       6 GLP5        0.0000 
     14 CA          9.0985  101.0005   30.1165 C.3       3 GLC5        0.0000 
     15 CA          8.2510  101.4260   31.7070 C.3       6 GLP5        0.0000 
     16 CA          9.3410  101.1190   22.0045 C.3       3 GLC5        0.0000 
     17 CA          9.9140  101.0210   24.0340 C.3       9 GLL5        0.0000 
     18 CA          8.7680  101.2170   19.9750 C.3       6 GLP5        0.0000 
     19 N          14.1405   99.6130   26.7030 N.am      2 SEC2        0.0000 
     20 N          14.1200   98.8760   25.7150 N.am      8 SEL2        0.0000 
     21 N          14.1610  100.3500   27.6910 N.am      5 SEP2        0.0000 
     22 O          14.5180   99.3890   24.7295 O.2       1 ALC1        0.0000 
     23 O          14.1200   98.8760   25.7150 O.2       7 ALL1        0.0000 
     24 O          14.9160   99.9020   23.7440 O.2       4 ALP1        0.0000 
     25 CA          9.2670   96.0080   25.9275 C.3       3 GLC5        0.0000 
     26 CA         11.1090   96.7710   26.0030 C.3       9 GLL5        0.0000 
     27 CA          7.4250   95.2450   25.8520 C.3       6 GLP5        0.0000 
     28 CA          9.8535   94.8355   25.9870 C.3       3 GLC5        0.0000 
     29 CA         11.5630   95.5820   25.4400 C.3       9 GLL5        0.0000 
     30 CA          8.1440   94.0890   26.5340 C.3       6 GLP5        0.0000 
     31 CA         11.0755   93.5500   25.1455 C.3       3 GLC5        0.0000 
     32 CA         10.5880   91.5180   24.8510 C.3       6 GLP5        0.0000 
     33 CA         15.2630   93.9205   24.0445 C.3       3 GLC5        0.0000 
     34 CA         13.5090   94.0070   24.2320 C.3       9 GLL5        0.0000 
     35 CA         17.0170   93.8340   23.8570 C.3       6 GLP5        0.0000 
     36 CA         12.0485   92.7625   24.5415 C.3       3 GLC5        0.0000 
     37 CA         14.1730   94.4590   25.9520 C.3       3 GLC5        0.0000 
     38 CA         14.8370   94.9110   27.6720 C.3       6 GLP5        0.0000 
     39 CA         11.1110  102.2007   24.9885 C.3       3 GLC5        0.0000 
     40 CA         13.1400  102.6200   24.4850 C.3       6 GLP5        0.0000 
     41 CA          8.1390  100.2155   27.2760 C.3       3 GLC5        0.0000 
     42 CA          9.9210  100.7730   26.7580 C.3       9 GLL5        0.0000 
     43 CA         11.7327  101.4895   25.4307 C.3       3 GLC5        0.0000 
     44 CA         11.9488  100.0440   27.6052 C.3       3 GLC5        0.0000 
     45 CA         10.7300   99.9450   25.9950 C.3       9 GLL5        0.0000 
     46 CA         13.5720   99.7290   28.8340 C.3       6 GLP5        0.0000 
     47 CA         11.7338  101.5803   24.4057 C.3       3 GLC5        0.0000 
     48 CA         10.7410  100.0600   24.6190 C.3       9 GLL5        0.0000 
     49 CA          9.6432   98.6662   23.5992 C.3       3 GLC5        0.0000 
     50 CA          8.9590   96.7920   22.8720 C.3       6 GLP5        0.0000 
     51 CA         11.2055  102.0780   26.9183 C.3       3 GLC5        0.0000 
     52 CA         13.0958   98.7845   27.3443 C.3       3 GLC5        0.0000 
     53 CA         11.9640   97.8760   26.0800 C.3       9 GLL5        0.0000 
     54 CA         15.5562   97.3400   25.0068 C.3       3 GLC5        0.0000 
     55 CA         13.2750   97.8040   25.6290 C.3       9 GLL5        0.0000 
     56 CA         17.6130   97.4720   24.6620 C.3       6 GLP5        0.0000 
     57 CA         10.1475   96.4843   24.2967 C.3       3 GLC5        0.0000 
@<TRIPOS>BOND
@<TRIPOS>SUBSTRUCTURE
     1 ALC1       22 GROUP        1 X    ALC  0     ROOT ALC X 1
     2 SEC2        1 GROUP        1 X    SEC  0     **** SEC X 2
     3 GLC5        6 GROUP        1 X    GLC  0     **** GLC X 6
     4 ALP1       24 GROUP        1 Y    ALP  0     ROOT ALP Y 8
     5 SEP2        3 GROUP        1 Y    SEP  0     **** SEP Y 9
     6 GLP5        8 GROUP        1 Y    GLP  0     **** GLP Y 13
     7 ALL1       23 GROUP        1 Z    ALL  0     ROOT ALL Z 15
     8 SEL2        2 GROUP        1 Z    SEL  0     **** SEL Z 16
     9 GLL5        7 GROUP        1 Z    GLL  0     **** GLL Z 20
@<TRIPOS>SET

