#    Name: 1zsn_TN2_2_ligand
#    Modification time : Mon Mar 24 17:49:19 2014

@<TRIPOS>MOLECULE
1zsn_TN2_2_ligand
   26    27     1     0     0
SMALL
NO_CHARGES


@<TRIPOS>ATOM
      1 O19         7.7200  103.6660   24.8460 O.2       1 TN2501      0.0000 
      2 N17         8.2780  102.8190   24.1710 N.pl3     1 TN2501      0.0000 
      3 O18         8.1740  102.8860   22.9550 O.2       1 TN2501      0.0000 
      4 C14         9.0770  101.8420   24.7980 C.ar      1 TN2501      0.0000 
      5 C13         9.0870  101.7210   26.1860 C.ar      1 TN2501      0.0000 
      6 C11         9.9210  100.7730   26.7580 C.ar      1 TN2501      0.0000 
      7 CL12        9.9460  100.5750   28.5260 Cl        1 TN2501      0.0000 
      8 C15         9.9140  101.0210   24.0340 C.ar      1 TN2501      0.0000 
      9 C16        10.7410  100.0600   24.6190 C.ar      1 TN2501      0.0000 
     10 C10        10.7300   99.9450   25.9950 C.ar      1 TN2501      0.0000 
     11 O9         11.5230   99.0390   26.6380 O.3       1 TN2501      0.0000 
     12 C6         11.9640   97.8760   26.0800 C.ar      1 TN2501      0.0000 
     13 C4         13.2750   97.8040   25.6290 C.ar      1 TN2501      0.0000 
     14 O5         14.1200   98.8760   25.7150 O.3       1 TN2501      0.0000 
     15 C3         13.7240   96.6120   25.0740 C.ar      1 TN2501      0.0000 
     16 C7         11.1090   96.7710   26.0030 C.ar      1 TN2501      0.0000 
     17 C8         11.5630   95.5820   25.4400 C.ar      1 TN2501      0.0000 
     18 C2         12.8750   95.5110   24.9760 C.ar      1 TN2501      0.0000 
     19 CL20       13.5090   94.0070   24.2320 Cl        1 TN2501      0.0000 
     20 H           8.4959  102.3150   26.7623 H         1 TN2501      0.0000 
     21 H           9.9193  101.1309   23.0001 H         1 TN2501      0.0000 
     22 H          11.3304   99.4667   24.0433 H         1 TN2501      0.0000 
     23 H          14.6946   96.5392   24.7307 H         1 TN2501      0.0000 
     24 H          10.1507   96.8406   26.3615 H         1 TN2501      0.0000 
     25 H          10.9444   94.7731   25.3676 H         1 TN2501      0.0000 
     26 H          13.8737   99.4620   24.9430 H         1 TN2501      0.0000 
@<TRIPOS>BOND
     1    2    1 2    
     2    3    2 2    
     3    4    2 1    
     4    5    4 ar   
     5    8    4 ar   
     6    6    5 ar   
     7   20    5 1    
     8    7    6 1    
     9   10    6 ar   
    10    9    8 ar   
    11   21    8 1    
    12   10    9 ar   
    13   22    9 1    
    14   11   10 1    
    15   12   11 1    
    16   13   12 ar   
    17   16   12 ar   
    18   14   13 1    
    19   15   13 ar   
    20   26   14 1    
    21   18   15 ar   
    22   23   15 1    
    23   17   16 ar   
    24   24   16 1    
    25   18   17 ar   
    26   25   17 1    
    27   19   18 1    
@<TRIPOS>SUBSTRUCTURE
     1 TN2501      1 GROUP   
@<TRIPOS>SET

