#    Name: 1qo8_FAD_1_INTS_M
#    Modification time : Mon Mar 24 23:43:03 2014

@<TRIPOS>MOLECULE
1qo8_FAD_1_INTS_M
  139     0     9     0     0
SMALL
NO_CHARGES


@<TRIPOS>ATOM
      1 N          38.3695   71.0970   19.6935 N.am      2 SEC2        0.0000 
      2 N          39.3220   70.7260   20.7550 N.am      8 SEL2        0.0000 
      3 N          37.4170   71.4680   18.6320 N.am      5 SEP2        0.0000 
      4 N          38.6620   71.8520   20.9305 N.am      2 SEC2        0.0000 
      5 N          38.0020   72.9780   21.1060 N.am      5 SEP2        0.0000 
      6 N          39.1590   68.7130   19.3845 N.am      2 SEC2        0.0000 
      7 N          39.5650   68.2560   20.8300 N.am      8 SEL2        0.0000 
      8 N          38.7530   69.1700   17.9390 N.am      5 SEP2        0.0000 
      9 CA         40.9900   67.5245   23.0595 C.3       3 GLC5        0.0000 
     10 CA         42.2590   68.6180   21.9420 C.3       9 GLL5        0.0000 
     11 CA         39.7210   66.4310   24.1770 C.3       6 GLP5        0.0000 
     12 CA         45.1170   69.2865   22.5080 C.3       3 GLC5        0.0000 
     13 CA         43.7320   68.8920   21.3520 C.3       9 GLL5        0.0000 
     14 CA         46.5020   69.6810   23.6640 C.3       6 GLP5        0.0000 
     15 CA         42.5120   68.9800   18.7155 C.3       3 GLC5        0.0000 
     16 CA         43.8480   68.4080   19.8690 C.3       9 GLL5        0.0000 
     17 CA         41.1760   69.5520   17.5620 C.3       6 GLP5        0.0000 
     18 O          45.3865   69.6245   19.2940 O.2       1 ALC1        0.0000 
     19 O          44.1890   69.2970   18.9030 O.2       7 ALL1        0.0000 
     20 O          46.5840   69.9520   19.6850 O.2       4 ALP1        0.0000 
     21 CA         45.2945   64.9745   19.6645 C.3       3 GLC5        0.0000 
     22 CA         44.5510   67.0040   19.9530 C.3       9 GLL5        0.0000 
     23 CA         46.0380   62.9450   19.3760 C.3       6 GLP5        0.0000 
     24 O          46.4615   67.6305   18.5250 O.2       1 ALC1        0.0000 
     25 O          45.3780   66.6640   18.8130 O.2       7 ALL1        0.0000 
     26 O          47.5450   68.5970   18.2370 O.2       4 ALP1        0.0000 
     27 CA         45.9855   68.4750   22.3755 C.3       3 GLC5        0.0000 
     28 CA         45.4690   67.2690   21.0870 C.3       9 GLL5        0.0000 
     29 N          44.8980   62.8930   22.5060 N.am      2 SEC2        0.0000 
     30 N          45.9300   63.9640   22.5530 N.am      8 SEL2        0.0000 
     31 N          43.8660   61.8220   22.4590 N.am      5 SEP2        0.0000 
     32 CA         45.7170   64.9590   24.1635 C.3       3 GLC5        0.0000 
     33 CA         47.2070   64.5050   22.6680 C.3       9 GLL5        0.0000 
     34 CA         44.2270   65.4130   25.6590 C.3       6 GLP5        0.0000 
     35 CA         49.7525   62.6505   22.1480 C.3       3 GLC5        0.0000 
     36 CA         48.4900   63.9510   23.0920 C.3       9 GLL5        0.0000 
     37 CA         51.0150   61.3500   21.2040 C.3       6 GLP5        0.0000 
     38 CA         50.1085   63.9965   24.5195 C.3       3 GLC5        0.0000 
     39 CA         51.7270   64.0420   25.9470 C.3       6 GLP5        0.0000 
     40 O          49.7390   62.0475   24.0960 O.2       1 ALC1        0.0000 
     41 O          48.6510   62.7340   23.5330 O.2       7 ALL1        0.0000 
     42 O          50.8270   61.3610   24.6590 O.2       4 ALP1        0.0000 
     43 O          47.7920   61.7385   22.8820 O.2       1 ALC1        0.0000 
     44 O          46.9330   60.7430   22.2310 O.2       4 ALP1        0.0000 
     45 N          50.8170   64.1720   23.3120 N.am      2 SEC2        0.0000 
     46 N          49.5160   64.8380   23.0700 N.am      8 SEL2        0.0000 
     47 N          52.1180   63.5060   23.5540 N.am      5 SEP2        0.0000 
     48 CA         49.1990   66.2740   24.4235 C.3       3 GLC5        0.0000 
     49 CA         49.4190   66.1030   22.5370 C.3       9 GLL5        0.0000 
     50 CA         48.9790   66.4450   26.3100 C.3       6 GLP5        0.0000 
     51 CA         50.8085   67.4585   23.5035 C.3       3 GLC5        0.0000 
     52 CA         52.1980   68.8140   24.4700 C.3       6 GLP5        0.0000 
     53 CA         49.6105   67.6275   21.4020 C.3       3 GLC5        0.0000 
     54 CA         49.8020   69.1520   20.2670 C.3       6 GLP5        0.0000 
     55 CA         49.5695   65.2590   20.7845 C.3       3 GLC5        0.0000 
     56 CA         49.7200   64.4150   19.0320 C.3       6 GLP5        0.0000 
     57 CA         50.8970   64.7800   21.8625 C.3       3 GLC5        0.0000 
     58 CA         52.3750   63.4570   21.1880 C.3       6 GLP5        0.0000 
     59 N          48.9755   66.7665   20.7340 N.am      2 SEC2        0.0000 
     60 N          48.2770   66.6840   22.1050 N.am      8 SEL2        0.0000 
     61 N          49.6740   66.8490   19.3630 N.am      5 SEP2        0.0000 
     62 CA         46.8670   67.7485   22.9205 C.3       3 GLC5        0.0000 
     63 CA         47.2320   65.8160   22.1770 C.3       9 GLL5        0.0000 
     64 CA         47.6920   65.0655   20.4850 C.3       3 GLC5        0.0000 
     65 CA         48.1520   64.3150   18.7930 C.3       6 GLP5        0.0000 
     66 N          27.7930   73.7545   23.0360 N.am      2 SEC2        0.0000 
     67 N          29.2860   73.5060   23.0010 N.am      8 SEL2        0.0000 
     68 N          26.3000   74.0030   23.0710 N.am      5 SEP2        0.0000 
     69 N          30.5020   73.7265   23.7425 N.am      2 SEC2        0.0000 
     70 N          31.7180   73.9470   24.4840 N.am      5 SEP2        0.0000 
     71 O          28.8685   75.4725   21.2015 O.2       1 ALC1        0.0000 
     72 O          29.0210   73.9680   20.9260 O.2       7 ALL1        0.0000 
     73 O          28.7160   76.9770   21.4770 O.2       4 ALP1        0.0000 
     74 N          28.4090   74.9020   17.7645 N.am      2 SEC2        0.0000 
     75 N          28.8080   74.2560   18.7200 N.am      8 SEL2        0.0000 
     76 N          28.0100   75.5480   16.8090 N.am      5 SEP2        0.0000 
     77 CA         33.2640   69.5930   15.1405 C.3       3 GLC5        0.0000 
     78 CA         31.2860   69.1750   16.0260 C.3       9 GLL5        0.0000 
     79 CA         35.2420   70.0110   14.2550 C.3       6 GLP5        0.0000 
     80 CA         33.3715   68.6600   14.1500 C.3       3 GLC5        0.0000 
     81 CA         31.4510   68.7330   14.6070 C.3       9 GLL5        0.0000 
     82 CA         35.2920   68.5870   13.6930 C.3       6 GLP5        0.0000 
     83 CA         31.0365   66.5725   14.3745 C.3       3 GLC5        0.0000 
     84 CA         30.6220   64.4120   14.1420 C.3       6 GLP5        0.0000 
     85 CA         34.5245   67.7290   17.6310 C.3       3 GLC5        0.0000 
     86 CA         32.5870   67.1120   16.7110 C.3       9 GLL5        0.0000 
     87 CA         36.4620   68.3460   18.5510 C.3       6 GLP5        0.0000 
     88 CA         33.9395   67.8495   15.2020 C.3       3 GLC5        0.0000 
     89 CA         31.6045   65.7620   15.4265 C.3       3 GLC5        0.0000 
     90 CA         33.8200   65.6415   16.0310 C.3       3 GLC5        0.0000 
     91 CA         35.0530   64.1710   15.3510 C.3       6 GLP5        0.0000 
     92 CA         31.9325   71.8070   18.2180 C.3       3 GLC5        0.0000 
     93 CA         31.1220   69.8750   18.7670 C.3       9 GLL5        0.0000 
     94 CA         32.7430   73.7390   17.6690 C.3       6 GLP5        0.0000 
     95 CA         30.2260   69.1530   22.6750 C.3       3 GLC5        0.0000 
     96 CA         31.7960   69.7610   21.1840 C.3       9 GLL5        0.0000 
     97 CA         28.6560   68.5450   24.1660 C.3       6 GLP5        0.0000 
     98 CA         33.4320   72.8485   21.4600 C.3       3 GLC5        0.0000 
     99 CA         32.9650   70.7510   21.5080 C.3       9 GLL5        0.0000 
    100 CA         33.8990   74.9460   21.4120 C.3       6 GLP5        0.0000 
    101 CA         35.3040   69.1010   20.2545 C.3       3 GLC5        0.0000 
    102 CA         34.1460   69.8560   21.9580 C.3       9 GLL5        0.0000 
    103 O          34.3500   67.8420   23.0180 O.2       1 ALC1        0.0000 
    104 O          33.7930   69.0990   23.1230 O.2       7 ALL1        0.0000 
    105 O          34.9070   66.5850   22.9130 O.2       4 ALP1        0.0000 
    106 O          36.8390   72.2985   21.3060 O.2       1 ALC1        0.0000 
    107 O          35.6760   71.6190   21.5060 O.2       7 ALL1        0.0000 
    108 O          38.0020   72.9780   21.1060 O.2       4 ALP1        0.0000 
    109 CA         36.1695   68.3190   24.2960 C.3       3 GLC5        0.0000 
    110 CA         36.3830   69.8860   23.0760 C.3       9 GLL5        0.0000 
    111 CA         35.9560   66.7520   25.5160 C.3       6 GLP5        0.0000 
    112 N          39.9815   73.0245   24.5655 N.am      2 SEC2        0.0000 
    113 N          39.6670   71.7720   24.0590 N.am      8 SEL2        0.0000 
    114 N          40.2960   74.2770   25.0720 N.am      5 SEP2        0.0000 
    115 N          37.6995   69.0875   26.0780 N.am      2 SEC2        0.0000 
    116 N          38.5240   69.7530   25.0750 N.am      8 SEL2        0.0000 
    117 N          36.8750   68.4220   27.0810 N.am      5 SEP2        0.0000 
    118 CA         42.5733   70.8225   21.3920 C.3       3 GLC5        0.0000 
    119 CA         42.1510   72.8900   21.1370 C.3       6 GLP5        0.0000 
    120 CA         43.2147   67.6945   23.3875 C.3       3 GLC5        0.0000 
    121 CA         43.4340   66.6340   25.1280 C.3       6 GLP5        0.0000 
    122 CA         43.5763   66.4660   18.6325 C.3       3 GLC5        0.0000 
    123 CA         42.9530   65.2260   17.3540 C.3       6 GLP5        0.0000 
    124 CA         48.4138   65.3365   24.5950 C.3       3 GLC5        0.0000 
    125 CA         47.7512   63.5880   21.0820 C.3       3 GLC5        0.0000 
    126 CA         47.6540   62.9480   19.2840 C.3       6 GLP5        0.0000 
    127 CA         46.9313   62.3835   23.6510 C.3       3 GLC5        0.0000 
    128 CA         46.0140   60.5390   24.4220 C.3       6 GLP5        0.0000 
    129 CA         29.5800   71.9555   16.1103 C.3       3 GLC5        0.0000 
    130 CA         30.6620   70.3500   16.3690 C.3       9 GLL5        0.0000 
    131 CA         28.5550   73.3870   15.1750 C.3       6 GLP5        0.0000 
    132 CA         31.7258   71.6483   16.3689 C.3       3 GLC5        0.0000 
    133 CA         30.5480   70.6980   17.7220 C.3       9 GLL5        0.0000 
    134 CA         32.5060   73.4470   16.2020 C.3       6 GLP5        0.0000 
    135 CA         32.2071   70.4900   23.3015 C.3       3 GLC5        0.0000 
    136 CA         31.1510   70.9240   24.9510 C.3       6 GLP5        0.0000 
    137 CA         36.0992   71.6642   24.1775 C.3       3 GLC5        0.0000 
    138 CA         35.1960   70.8090   22.6220 C.3       9 GLL5        0.0000 
    139 CA         36.4090   72.9810   25.5060 C.3       6 GLP5        0.0000 
@<TRIPOS>BOND
@<TRIPOS>SUBSTRUCTURE
     1 ALC1       18 GROUP        1 X    ALC  0     ROOT ALC X 1
     2 SEC2        1 GROUP        1 X    SEC  0     **** SEC X 2
     3 GLC5        9 GROUP        1 X    GLC  0     **** GLC X 6
     4 ALP1       20 GROUP        1 Y    ALP  0     ROOT ALP Y 8
     5 SEP2        3 GROUP        1 Y    SEP  0     **** SEP Y 9
     6 GLP5       11 GROUP        1 Y    GLP  0     **** GLP Y 13
     7 ALL1       19 GROUP        1 Z    ALL  0     ROOT ALL Z 15
     8 SEL2        2 GROUP        1 Z    SEL  0     **** SEL Z 16
     9 GLL5       10 GROUP        1 Z    GLL  0     **** GLL Z 20
@<TRIPOS>SET

