#    Name: 1qo8_FAD_1_ligand
#    Modification time : Mon Mar 24 23:43:03 2014

@<TRIPOS>MOLECULE
1qo8_FAD_1_ligand
   84    89     1     0     0
SMALL
NO_CHARGES


@<TRIPOS>ATOM
      1 PA         39.7590   69.4590   21.4230 P.3       1 FAD605      0.0000 
      2 O1A        39.3220   70.7260   20.7550 O.co2     1 FAD605      0.0000 
      3 O2A        39.5650   68.2560   20.8300 O.co2     1 FAD605      0.0000 
      4 O5B        41.3200   69.5540   21.2690 O.3       1 FAD605      0.0000 
      5 C5B        42.2590   68.6180   21.9420 C.3       1 FAD605      0.0000 
      6 C4B        43.7320   68.8920   21.3520 C.3       1 FAD605      0.0000 
      7 O4B        44.5890   67.8990   22.1010 O.3       1 FAD605      0.0000 
      8 C3B        43.8480   68.4080   19.8690 C.3       1 FAD605      0.0000 
      9 O3B        44.1890   69.2970   18.9030 O.3       1 FAD605      0.0000 
     10 C2B        44.5510   67.0040   19.9530 C.3       1 FAD605      0.0000 
     11 O2B        45.3780   66.6640   18.8130 O.3       1 FAD605      0.0000 
     12 C1B        45.4690   67.2690   21.0870 C.3       1 FAD605      0.0000 
     13 N9A        45.9070   66.0470   21.7740 N.pl3     1 FAD605      0.0000 
     14 C8A        45.1930   64.9020   22.0250 C.2       1 FAD605      0.0000 
     15 N7A        45.9300   63.9640   22.5530 N.2       1 FAD605      0.0000 
     16 C5A        47.2070   64.5050   22.6680 C.ar      1 FAD605      0.0000 
     17 C6A        48.4900   63.9510   23.0920 C.ar      1 FAD605      0.0000 
     18 N6A        48.6510   62.7340   23.5330 N.pl3     1 FAD605      0.0000 
     19 N1A        49.5160   64.8380   23.0700 N.ar      1 FAD605      0.0000 
     20 C2A        49.4190   66.1030   22.5370 C.ar      1 FAD605      0.0000 
     21 N3A        48.2770   66.6840   22.1050 N.ar      1 FAD605      0.0000 
     22 C4A        47.2320   65.8160   22.1770 C.ar      1 FAD605      0.0000 
     23 N1         30.0670   71.9260   21.6170 N.2       1 FAD605      0.0000 
     24 C2         29.4950   73.0600   21.9210 C.2       1 FAD605      0.0000 
     25 O2         29.2860   73.5060   23.0010 O.2       1 FAD605      0.0000 
     26 N3         29.0210   73.9680   20.9260 N.am      1 FAD605      0.0000 
     27 C4         29.2230   73.5680   19.6090 C.2       1 FAD605      0.0000 
     28 O4         28.8080   74.2560   18.7200 O.2       1 FAD605      0.0000 
     29 C4X        29.8080   72.2650   19.3020 C.2       1 FAD605      0.0000 
     30 N5         29.9350   71.8660   18.0270 N.2       1 FAD605      0.0000 
     31 C5X        30.5480   70.6980   17.7220 C.ar      1 FAD605      0.0000 
     32 C6         30.6620   70.3500   16.3690 C.ar      1 FAD605      0.0000 
     33 C7         31.2860   69.1750   16.0260 C.ar      1 FAD605      0.0000 
     34 C7M        31.4510   68.7330   14.6070 C.3       1 FAD605      0.0000 
     35 C8         31.8410   68.3590   17.0770 C.ar      1 FAD605      0.0000 
     36 C8M        32.5870   67.1120   16.7110 C.3       1 FAD605      0.0000 
     37 C9         31.7580   68.7130   18.3990 C.ar      1 FAD605      0.0000 
     38 C9A        31.1220   69.8750   18.7670 C.ar      1 FAD605      0.0000 
     39 N10        30.9440   70.3260   20.0900 N.pl3     1 FAD605      0.0000 
     40 C10        30.3130   71.4730   20.3840 C.2       1 FAD605      0.0000 
     41 C1'        31.7960   69.7610   21.1840 C.3       1 FAD605      0.0000 
     42 C2'        32.9650   70.7510   21.5080 C.3       1 FAD605      0.0000 
     43 O2'        33.3430   71.1940   20.1610 O.3       1 FAD605      0.0000 
     44 C3'        34.1460   69.8560   21.9580 C.3       1 FAD605      0.0000 
     45 O3'        33.7930   69.0990   23.1230 O.3       1 FAD605      0.0000 
     46 C4'        35.1960   70.8090   22.6220 C.3       1 FAD605      0.0000 
     47 O4'        35.6760   71.6190   21.5060 O.3       1 FAD605      0.0000 
     48 C5'        36.3830   69.8860   23.0760 C.3       1 FAD605      0.0000 
     49 O5'        37.5370   70.9080   23.3340 O.3       1 FAD605      0.0000 
     50 P          38.8860   70.4830   23.9440 P.3       1 FAD605      0.0000 
     51 O1P        39.6670   71.7720   24.0590 O.co2     1 FAD605      0.0000 
     52 O2P        38.5240   69.7530   25.0750 O.co2     1 FAD605      0.0000 
     53 O3P        39.3870   69.5060   22.9980 O.3       1 FAD605      0.0000 
     54 H          42.0235   67.5938   21.7274 H         1 FAD605      0.0000 
     55 H          42.3094   68.7947   22.9987 H         1 FAD605      0.0000 
     56 H          44.0181   69.8302   21.4887 H         1 FAD605      0.0000 
     57 H          42.7156   68.0547   19.6858 H         1 FAD605      0.0000 
     58 H          43.8523   66.2959   20.2299 H         1 FAD605      0.0000 
     59 H          46.2386   67.9003   20.8467 H         1 FAD605      0.0000 
     60 H          44.2226   64.8317   21.8145 H         1 FAD605      0.0000 
     61 H          49.3853   62.6007   24.1987 H         1 FAD605      0.0000 
     62 H          48.0254   62.0462   23.1649 H         1 FAD605      0.0000 
     63 H          50.3300   66.6673   22.4620 H         1 FAD605      0.0000 
     64 H          28.5813   74.8190   21.1748 H         1 FAD605      0.0000 
     65 H          30.2795   70.9744   15.6521 H         1 FAD605      0.0000 
     66 H          32.1759   68.1033   19.1251 H         1 FAD605      0.0000 
     67 H          32.2323   68.8165   20.8809 H         1 FAD605      0.0000 
     68 H          31.2157   69.6217   22.0885 H         1 FAD605      0.0000 
     69 H          32.7160   71.4391   22.1368 H         1 FAD605      0.0000 
     70 H          34.5747   69.3445   21.2189 H         1 FAD605      0.0000 
     71 H          34.7971   71.3125   23.3828 H         1 FAD605      0.0000 
     72 H          36.6473   69.2489   22.2874 H         1 FAD605      0.0000 
     73 H          36.1276   69.4100   23.9737 H         1 FAD605      0.0000 
     74 H          31.9822   69.3905   14.0726 H         1 FAD605      0.0000 
     75 H          31.9240   67.8542   14.5444 H         1 FAD605      0.0000 
     76 H          30.5698   68.6250   14.1468 H         1 FAD605      0.0000 
     77 H          33.3821   67.3097   16.1377 H         1 FAD605      0.0000 
     78 H          32.9218   66.6286   17.5198 H         1 FAD605      0.0000 
     79 H          32.0118   66.4706   16.2033 H         1 FAD605      0.0000 
     80 H          44.8393   69.9178   19.3407 H         1 FAD605      0.0000 
     81 H          46.0366   67.4128   18.7387 H         1 FAD605      0.0000 
     82 H          34.3090   71.4426   20.2320 H         1 FAD605      0.0000 
     83 H          34.2579   68.2207   23.0115 H         1 FAD605      0.0000 
     84 H          36.2583   72.3163   21.9241 H         1 FAD605      0.0000 
@<TRIPOS>BOND
     1    2    1 ar   
     2    3    1 ar   
     3    4    1 1    
     4   53    1 1    
     5    5    4 1    
     6    6    5 1    
     7   54    5 1    
     8   55    5 1    
     9    7    6 1    
    10    8    6 1    
    11   56    6 1    
    12   12    7 1    
    13    9    8 1    
    14   10    8 1    
    15   57    8 1    
    16   80    9 1    
    17   11   10 1    
    18   12   10 1    
    19   58   10 1    
    20   81   11 1    
    21   13   12 1    
    22   59   12 1    
    23   14   13 1    
    24   22   13 1    
    25   15   14 2    
    26   60   14 1    
    27   16   15 1    
    28   17   16 ar   
    29   22   16 ar   
    30   18   17 1    
    31   19   17 ar   
    32   61   18 1    
    33   62   18 1    
    34   20   19 ar   
    35   21   20 ar   
    36   63   20 1    
    37   22   21 ar   
    38   24   23 1    
    39   40   23 2    
    40   25   24 2    
    41   26   24 am   
    42   27   26 am   
    43   64   26 1    
    44   28   27 2    
    45   29   27 1    
    46   30   29 2    
    47   40   29 1    
    48   31   30 1    
    49   32   31 ar   
    50   38   31 ar   
    51   33   32 ar   
    52   65   32 1    
    53   34   33 1    
    54   35   33 ar   
    55   74   34 1    
    56   75   34 1    
    57   76   34 1    
    58   36   35 1    
    59   37   35 ar   
    60   77   36 1    
    61   78   36 1    
    62   79   36 1    
    63   38   37 ar   
    64   66   37 1    
    65   39   38 1    
    66   40   39 1    
    67   41   39 1    
    68   42   41 1    
    69   67   41 1    
    70   68   41 1    
    71   43   42 1    
    72   44   42 1    
    73   69   42 1    
    74   82   43 1    
    75   45   44 1    
    76   46   44 1    
    77   70   44 1    
    78   83   45 1    
    79   47   46 1    
    80   48   46 1    
    81   71   46 1    
    82   84   47 1    
    83   49   48 1    
    84   72   48 1    
    85   73   48 1    
    86   50   49 1    
    87   51   50 ar   
    88   52   50 ar   
    89   53   50 1    
@<TRIPOS>SUBSTRUCTURE
     1 FAD605      1 GROUP   
@<TRIPOS>SET

