#    Name: 1tkg_SSA_1_INTS_M
#    Modification time : Tue Mar 25 05:26:48 2014

@<TRIPOS>MOLECULE
1tkg_SSA_1_INTS_M
   61     0    12     0     0
SMALL
NO_CHARGES


@<TRIPOS>ATOM
      1 OD1        -2.8295    1.2405   17.0360 O.co2     3 ASC3        0.0000 
      2 OD1        -3.0580    0.2270   18.4480 O.co2    11 ASL3        0.0000 
      3 OD1        -2.6010    2.2540   15.6240 O.co2     7 ASP3        0.0000 
      4 O          -1.7530    0.6635   18.6635 O.2       1 ALC1        0.0000 
      5 O          -3.0580    0.2270   18.4480 O.2       9 ALL1        0.0000 
      6 O          -0.4480    1.1000   18.8790 O.2       5 ALP1        0.0000 
      7 O          -3.9895    1.3215   18.4045 O.2       1 ALC1        0.0000 
      8 O          -4.9210    2.4160   18.3610 O.2       5 ALP1        0.0000 
      9 CA         -2.4385   -0.9595   15.2070 C.3       4 GLC5        0.0000 
     10 CA         -3.2980   -0.5200   17.2180 C.3      12 GLL5        0.0000 
     11 CA         -1.5790   -1.3990   13.1960 C.3       8 GLP5        0.0000 
     12 CA         -0.4180   -2.7750   16.9800 C.3       4 GLC5        0.0000 
     13 CA         -2.0050   -1.2070   16.7600 C.3      12 GLL5        0.0000 
     14 CA          1.1690   -4.3430   17.2000 C.3       8 GLP5        0.0000 
     15 CA         -2.5055   -3.0635   15.9740 C.3       4 GLC5        0.0000 
     16 CA         -3.0060   -4.9200   15.1880 C.3       8 GLP5        0.0000 
     17 CA         -1.1785   -1.4965   15.2340 C.3       4 GLC5        0.0000 
     18 CA         -0.3520   -1.7860   13.7080 C.3       8 GLP5        0.0000 
     19 O          -1.9350   -3.2270   17.6110 O.2       1 ALC1        0.0000 
     20 O          -1.4830   -2.0500   17.7730 O.2       9 ALL1        0.0000 
     21 O          -2.3870   -4.4040   17.4490 O.2       5 ALP1        0.0000 
     22 N          -4.6290   -3.0250   15.5860 N.am      2 SEC2        0.0000 
     23 N          -5.0680   -1.8930   16.3790 N.am     10 SEL2        0.0000 
     24 N          -4.1900   -4.1570   14.7930 N.am      6 SEP2        0.0000 
     25 O          -3.6200   -2.5150   19.6690 O.2       1 ALC1        0.0000 
     26 O          -4.6000   -2.0680   18.5820 O.2       9 ALL1        0.0000 
     27 O          -2.6400   -2.9620   20.7560 O.2       5 ALP1        0.0000 
     28 CA         -5.5705   -0.3700   20.5595 C.3       4 GLC5        0.0000 
     29 CA         -7.3190   -0.8970   19.4230 C.3      12 GLL5        0.0000 
     30 CA         -3.8220    0.1570   21.6960 C.3       8 GLP5        0.0000 
     31 CA        -11.0265    2.9715   18.4095 C.3       4 GLC5        0.0000 
     32 CA        -10.4520    1.0840   18.7030 C.3      12 GLL5        0.0000 
     33 CA        -11.6010    4.8590   18.1160 C.3       8 GLP5        0.0000 
     34 CA         -9.7400    0.9150   22.2015 C.3       4 GLC5        0.0000 
     35 CA        -10.5310    0.6360   20.1680 C.3      12 GLL5        0.0000 
     36 CA         -8.9490    1.1940   24.2350 C.3       8 GLP5        0.0000 
     37 CA         -9.4420    6.6265   22.0035 C.3       4 GLC5        0.0000 
     38 CA         -9.8860    4.8080   22.6370 C.3      12 GLL5        0.0000 
     39 CA         -8.9980    8.4450   21.3700 C.3       8 GLP5        0.0000 
     40 O          -9.9770    7.2245   23.7915 O.2       1 ALC1        0.0000 
     41 O         -10.3780    5.6390   23.5640 O.2       9 ALL1        0.0000 
     42 O          -9.5760    8.8100   24.0190 O.2       5 ALP1        0.0000 
     43 N          -7.8345    6.3540   22.0915 N.am      2 SEC2        0.0000 
     44 N          -8.7550    5.1580   21.9860 N.am     10 SEL2        0.0000 
     45 N          -6.9140    7.5500   22.1970 N.am      6 SEP2        0.0000 
     46 CA         -9.9425    4.5980   19.5785 C.3       4 GLC5        0.0000 
     47 CA         -8.2840    4.3370   21.0410 C.3      12 GLL5        0.0000 
     48 CA         -8.6410    6.3910   21.2055 C.3       4 GLC5        0.0000 
     49 CA         -7.6525    4.8605   19.4620 C.3       4 GLC5        0.0000 
     50 CA         -7.0210    5.3840   17.8830 C.3       8 GLP5        0.0000 
     51 CA         -6.7210    3.4610   21.0375 C.3       4 GLC5        0.0000 
     52 CA         -5.1580    2.5850   21.0340 C.3       8 GLP5        0.0000 
     53 CA        -10.7420    3.8495   19.7065 C.3       4 GLC5        0.0000 
     54 CA         -9.8830    2.8400   21.2970 C.3      12 GLL5        0.0000 
     55 CA         -1.0748   -0.2373   17.5875 C.3       4 GLC5        0.0000 
     56 CA          0.5020    0.3890   18.1860 C.3       8 GLP5        0.0000 
     57 CA        -10.5657    1.5235   16.8182 C.3       4 GLC5        0.0000 
     58 CA         -8.9950    0.7840   18.3560 C.3      12 GLL5        0.0000 
     59 CA        -11.4080    2.1130   15.1070 C.3       8 GLP5        0.0000 
     60 CA         -9.4923    2.3563   23.0580 C.3       4 GLC5        0.0000 
     61 CA        -10.4900    3.5860   22.2930 C.3      12 GLL5        0.0000 
@<TRIPOS>BOND
@<TRIPOS>SUBSTRUCTURE
     1 ALC1        4 GROUP        1 X    ALC  0     ROOT ALC X 1
     2 SEC2       22 GROUP        1 X    SEC  0     **** SEC X 2
     3 ASC3        1 GROUP        1 X    ASC  0     **** ASC X 3
     4 GLC5        9 GROUP        1 X    GLC  0     **** GLC X 6
     5 ALP1        6 GROUP        1 Y    ALP  0     ROOT ALP Y 8
     6 SEP2       24 GROUP        1 Y    SEP  0     **** SEP Y 9
     7 ASP3        3 GROUP        1 Y    ASP  0     **** ASP Y 10
     8 GLP5       11 GROUP        1 Y    GLP  0     **** GLP Y 13
     9 ALL1        5 GROUP        1 Z    ALL  0     ROOT ALL Z 15
    10 SEL2       23 GROUP        1 Z    SEL  0     **** SEL Z 16
    11 ASL3        2 GROUP        1 Z    ASL  0     **** ASL Z 17
    12 GLL5       10 GROUP        1 Z    GLL  0     **** GLL Z 20
@<TRIPOS>SET

