#    Name: 1tkg_SSA_1_ligand
#    Modification time : Tue Mar 25 05:26:48 2014

@<TRIPOS>MOLECULE
1tkg_SSA_1_ligand
   49    51     1     0     0
SMALL
NO_CHARGES


@<TRIPOS>ATOM
      1 N10        -3.0580    0.2270   18.4480 N.4       1 SSA500      0.0000 
      2 CA         -3.2980   -0.5200   17.2180 C.3       1 SSA500      0.0000 
      3 CB         -2.0050   -1.2070   16.7600 C.3       1 SSA500      0.0000 
      4 OG         -1.4830   -2.0500   17.7730 O.3       1 SSA500      0.0000 
      5 C9         -4.4100   -1.5540   17.3610 C.2       1 SSA500      0.0000 
      6 O9         -5.0680   -1.8930   16.3790 O.2       1 SSA500      0.0000 
      7 N8         -4.6000   -2.0680   18.5820 N.am      1 SSA500      0.0000 
      8 S1         -5.8270   -3.0110   18.9560 S.o2      1 SSA500      0.0000 
      9 O1S        -5.9420   -4.1230   17.9850 O.2       1 SSA500      0.0000 
     10 O2S        -5.7390   -3.3290   20.3990 O.2       1 SSA500      0.0000 
     11 O5'        -7.1030   -2.1000   18.6990 O.3       1 SSA500      0.0000 
     12 C5'        -7.3190   -0.8970   19.4230 C.3       1 SSA500      0.0000 
     13 C4'        -8.7380   -0.4490   19.2040 C.3       1 SSA500      0.0000 
     14 O4'        -9.3720   -0.1200   20.4580 O.3       1 SSA500      0.0000 
     15 C3'        -8.9950    0.7840   18.3560 C.3       1 SSA500      0.0000 
     16 O3'        -8.8640    0.5060   16.9640 O.3       1 SSA500      0.0000 
     17 C2'       -10.4520    1.0840   18.7030 C.3       1 SSA500      0.0000 
     18 O2'       -11.3330    0.2860   17.9380 O.3       1 SSA500      0.0000 
     19 C1'       -10.5310    0.6360   20.1680 C.3       1 SSA500      0.0000 
     20 N9        -10.6740    1.7230   21.1340 N.pl3     1 SSA500      0.0000 
     21 C8        -11.6870    1.8450   22.0540 C.2       1 SSA500      0.0000 
     22 N7        -11.6260    2.9440   22.7650 N.2       1 SSA500      0.0000 
     23 C5        -10.4900    3.5860   22.2930 C.ar      1 SSA500      0.0000 
     24 C6         -9.8860    4.8080   22.6370 C.ar      1 SSA500      0.0000 
     25 N6        -10.3780    5.6390   23.5640 N.pl3     1 SSA500      0.0000 
     26 N1         -8.7550    5.1580   21.9860 N.ar      1 SSA500      0.0000 
     27 C2         -8.2840    4.3370   21.0410 C.ar      1 SSA500      0.0000 
     28 N3         -8.7670    3.1650   20.6210 N.ar      1 SSA500      0.0000 
     29 C4         -9.8830    2.8400   21.2970 C.ar      1 SSA500      0.0000 
     30 H          -3.5879    0.1707   16.4156 H         1 SSA500      0.0000 
     31 H          -1.2937   -0.4119   16.4782 H         1 SSA500      0.0000 
     32 H          -2.2401   -1.7666   15.8385 H         1 SSA500      0.0000 
     33 H          -3.9770   -1.9056   19.3923 H         1 SSA500      0.0000 
     34 H          -6.6500   -0.0970   19.0879 H         1 SSA500      0.0000 
     35 H          -7.1648   -1.0382   20.4982 H         1 SSA500      0.0000 
     36 H          -9.3183   -1.2741   18.7547 H         1 SSA500      0.0000 
     37 H          -8.4023    1.5720   18.7103 H         1 SSA500      0.0000 
     38 H         -10.6164    2.1086   18.6586 H         1 SSA500      0.0000 
     39 H         -11.4138   -0.0287   20.2413 H         1 SSA500      0.0000 
     40 H         -12.3937    1.1385   22.1475 H         1 SSA500      0.0000 
     41 H          -9.8899    6.5036   23.6834 H         1 SSA500      0.0000 
     42 H         -11.1895    5.3207   24.0540 H         1 SSA500      0.0000 
     43 H          -7.3580    4.6800   20.5330 H         1 SSA500      0.0000 
     44 H          -2.1168    0.5603   18.5025 H         1 SSA500      0.0000 
     45 H          -3.6561    1.0251   18.5206 H         1 SSA500      0.0000 
     46 H          -3.2178   -0.3339   19.2604 H         1 SSA500      0.0000 
     47 H          -1.4412   -2.9586   17.3574 H         1 SSA500      0.0000 
     48 H          -8.0338   -0.0461   16.8875 H         1 SSA500      0.0000 
     49 H         -10.7663   -0.1000   17.2100 H         1 SSA500      0.0000 
@<TRIPOS>BOND
     1    2    1 1    
     2   44    1 1    
     3   45    1 1    
     4   46    1 1    
     5    3    2 1    
     6    5    2 1    
     7   30    2 1    
     8    4    3 1    
     9   31    3 1    
    10   32    3 1    
    11   47    4 1    
    12    6    5 2    
    13    7    5 am   
    14    8    7 1    
    15   33    7 1    
    16    9    8 2    
    17   10    8 2    
    18   11    8 1    
    19   12   11 1    
    20   13   12 1    
    21   34   12 1    
    22   35   12 1    
    23   14   13 1    
    24   15   13 1    
    25   36   13 1    
    26   19   14 1    
    27   16   15 1    
    28   17   15 1    
    29   37   15 1    
    30   48   16 1    
    31   18   17 1    
    32   19   17 1    
    33   38   17 1    
    34   49   18 1    
    35   20   19 1    
    36   39   19 1    
    37   21   20 1    
    38   29   20 1    
    39   22   21 2    
    40   40   21 1    
    41   23   22 1    
    42   24   23 ar   
    43   29   23 ar   
    44   25   24 1    
    45   26   24 ar   
    46   41   25 1    
    47   42   25 1    
    48   27   26 ar   
    49   28   27 ar   
    50   43   27 1    
    51   29   28 ar   
@<TRIPOS>SUBSTRUCTURE
     1 SSA500      1 GROUP   
@<TRIPOS>SET

