#    Name: 1rk3_VDX_1_INTS_M
#    Modification time : Tue Mar 25 00:49:54 2014

@<TRIPOS>MOLECULE
1rk3_VDX_1_INTS_M
  124     0     9     0     0
SMALL
NO_CHARGES


@<TRIPOS>ATOM
      1 N          58.3320    8.8140    2.2805 N.am      2 SEC2        0.0000 
      2 N          58.8620    8.2470    1.1940 N.am      8 SEL2        0.0000 
      3 N          57.8020    9.3810    3.3670 N.am      5 SEP2        0.0000 
      4 O          58.4080    9.2170    0.1785 O.2       1 ALC1        0.0000 
      5 O          58.8620    8.2470    1.1940 O.2       7 ALL1        0.0000 
      6 O          57.9540   10.1870   -0.8370 O.2       4 ALP1        0.0000 
      7 N          65.2595   -2.1405   -8.6490 N.am      2 SEC2        0.0000 
      8 N          65.8380   -2.5630   -7.4170 N.am      8 SEL2        0.0000 
      9 N          64.6810   -1.7180   -9.8810 N.am      5 SEP2        0.0000 
     10 N          64.6470   -3.1295   -7.1305 N.am      2 SEC2        0.0000 
     11 N          63.4560   -3.6960   -6.8440 N.am      5 SEP2        0.0000 
     12 CA         59.0615    4.6030    2.4585 C.3       3 GLC5        0.0000 
     13 CA         60.3880    5.7130    1.6510 C.3       9 GLL5        0.0000 
     14 CA         57.7350    3.4930    3.2660 C.3       6 GLP5        0.0000 
     15 CA         59.0800    8.5795    3.0235 C.3       3 GLC5        0.0000 
     16 CA         60.2910    8.3050    1.4000 C.3       9 GLL5        0.0000 
     17 CA         57.8690    8.8540    4.6470 C.3       6 GLP5        0.0000 
     18 CA         59.0020    9.7970    0.7105 C.3       3 GLC5        0.0000 
     19 CA         57.7130   11.2890    0.0210 C.3       6 GLP5        0.0000 
     20 CA         62.6980    8.9145    1.0715 C.3       3 GLC5        0.0000 
     21 CA         61.0320    8.2370    0.0000 C.3       9 GLL5        0.0000 
     22 CA         64.3640    9.5920    2.1430 C.3       6 GLP5        0.0000 
     23 CA         63.0090    7.4385    0.3425 C.3       3 GLC5        0.0000 
     24 CA         64.9860    6.6400    0.6850 C.3       6 GLP5        0.0000 
     25 CA         58.8840    6.2910   -4.9015 C.3       3 GLC5        0.0000 
     26 CA         60.4810    5.4120   -4.1780 C.3       9 GLL5        0.0000 
     27 CA         57.2870    7.1700   -5.6250 C.3       6 GLP5        0.0000 
     28 CA         59.5160    7.4755   -5.4820 C.3       3 GLC5        0.0000 
     29 CA         60.9120    6.6570   -5.1020 C.3       9 GLL5        0.0000 
     30 CA         58.1200    8.2940   -5.8620 C.3       6 GLP5        0.0000 
     31 CA         62.0280    8.4605   -4.6905 C.3       3 GLC5        0.0000 
     32 CA         63.1440   10.2640   -4.2790 C.3       6 GLP5        0.0000 
     33 CA         64.3805    6.6895   -5.6825 C.3       3 GLC5        0.0000 
     34 CA         62.2950    6.3060   -5.8690 C.3       9 GLL5        0.0000 
     35 CA         66.4660    7.0730   -5.4960 C.3       6 GLP5        0.0000 
     36 CA         60.4845    7.3835   -6.5090 C.3       3 GLC5        0.0000 
     37 CA         58.6740    8.4610   -7.1490 C.3       6 GLP5        0.0000 
     38 CA         62.5145    8.2680   -6.3120 C.3       3 GLC5        0.0000 
     39 CA         62.7340   10.2300   -6.7550 C.3       6 GLP5        0.0000 
     40 CA         64.1920    5.3485   -7.1090 C.3       3 GLC5        0.0000 
     41 CA         62.1840    4.8180   -6.5180 C.3       9 GLL5        0.0000 
     42 CA         66.2000    5.8790   -7.7000 C.3       6 GLP5        0.0000 
     43 CA         58.6165    5.1790   -5.7805 C.3       3 GLC5        0.0000 
     44 CA         60.2490    4.1270   -4.9500 C.3       9 GLL5        0.0000 
     45 CA         56.9840    6.2310   -6.6110 C.3       6 GLP5        0.0000 
     46 CA         60.6450   -0.5355   -4.4275 C.3       3 GLC5        0.0000 
     47 CA         60.2880    1.5870   -5.0770 C.3       9 GLL5        0.0000 
     48 CA         61.0020   -2.6580   -3.7780 C.3       6 GLP5        0.0000 
     49 CA         64.0235    2.3925   -3.5625 C.3       3 GLC5        0.0000 
     50 CA         62.8850    3.4300   -4.4240 C.3       9 GLL5        0.0000 
     51 CA         65.1620    1.3550   -2.7010 C.3       6 GLP5        0.0000 
     52 CA         62.5325    3.4475    1.3360 C.3       3 GLC5        0.0000 
     53 CA         61.7210    4.5890   -0.1930 C.3       9 GLL5        0.0000 
     54 CA         63.3440    2.3060    2.8650 C.3       6 GLP5        0.0000 
     55 CA         61.0975    2.8940   -0.5040 C.3       3 GLC5        0.0000 
     56 CA         60.4740    1.1990   -0.8150 C.3       6 GLP5        0.0000 
     57 CA         63.0385    0.0565   -9.2905 C.3       3 GLC5        0.0000 
     58 CA         61.4970    0.6150   -8.0540 C.3       9 GLL5        0.0000 
     59 CA         64.5800   -0.5020  -10.5270 C.3       6 GLP5        0.0000 
     60 CA         60.8420   -0.5785   -9.3205 C.3       3 GLC5        0.0000 
     61 CA         60.1870   -1.7720  -10.5870 C.3       6 GLP5        0.0000 
     62 CA         59.6145    1.5600   -8.1945 C.3       3 GLC5        0.0000 
     63 CA         57.7320    2.5050   -8.3350 C.3       6 GLP5        0.0000 
     64 CA         61.9145   -1.4395   -7.8305 C.3       3 GLC5        0.0000 
     65 CA         62.3320   -3.4940   -7.6070 C.3       6 GLP5        0.0000 
     66 CA         62.0555   -1.1095   -4.9545 C.3       3 GLC5        0.0000 
     67 CA         63.1090    0.4390   -6.1310 C.3       9 GLL5        0.0000 
     68 CA         64.5260   -0.2030   -8.6305 C.3       3 GLC5        0.0000 
     69 CA         64.4720    0.0960   -6.7340 C.3       9 GLL5        0.0000 
     70 CA         69.0285   -0.0365   -7.8705 C.3       3 GLC5        0.0000 
     71 CA         67.2700   -0.6230   -7.4810 C.3       9 GLL5        0.0000 
     72 CA         70.7870    0.5500   -8.2600 C.3       6 GLP5        0.0000 
     73 CA         67.7705   -1.6110   -9.2560 C.3       3 GLC5        0.0000 
     74 CA         68.2710   -2.5990  -11.0310 C.3       6 GLP5        0.0000 
     75 CA         67.3890   -4.1300   -6.2960 C.3       3 GLC5        0.0000 
     76 CA         67.4000   -2.2490   -5.6110 C.3       9 GLL5        0.0000 
     77 CA         67.3780   -6.0110   -6.9810 C.3       6 GLP5        0.0000 
     78 CA         69.5270   -2.4150   -5.8160 C.3       3 GLC5        0.0000 
     79 CA         71.6540   -2.5810   -6.0210 C.3       6 GLP5        0.0000 
     80 CA         68.4270   -3.2420   -4.1185 C.3       3 GLC5        0.0000 
     81 CA         69.4540   -4.2350   -2.6260 C.3       6 GLP5        0.0000 
     82 CA         66.5730   -3.7605   -4.3490 C.3       3 GLC5        0.0000 
     83 CA         65.7460   -5.2720   -3.0870 C.3       6 GLP5        0.0000 
     84 N          60.7350    4.4200    3.8080 N.am      2 SEC2        0.0000 
     85 N          60.9450    4.6050    2.4230 N.am      8 SEL2        0.0000 
     86 N          60.5250    4.2350    5.1930 N.am      5 SEP2        0.0000 
     87 O          62.2420    4.1455    2.4940 O.2       1 ALC1        0.0000 
     88 O          60.9450    4.6050    2.4230 O.2       7 ALL1        0.0000 
     89 O          63.5390    3.6860    2.5650 O.2       4 ALP1        0.0000 
     90 CA         59.2455    6.9322    3.4022 C.3       3 GLC5        0.0000 
     91 CA         57.9160    7.4690    4.8210 C.3       6 GLP5        0.0000 
     92 CA         59.0367    5.5840   -0.1492 C.3       3 GLC5        0.0000 
     93 CA         57.3860    5.4740   -1.2360 C.3       6 GLP5        0.0000 
     94 CA         60.5162    9.5263    2.7400 C.3       3 GLC5        0.0000 
     95 CA         60.7620    7.0780    2.3160 C.3       9 GLL5        0.0000 
     96 CA         60.5060   11.3610    3.6220 C.3       6 GLP5        0.0000 
     97 CA         62.4453    8.6418    2.0005 C.3       3 GLC5        0.0000 
     98 CA         61.0847    9.9610    0.2205 C.3       3 GLC5        0.0000 
     99 CA         61.5080   11.6510   -0.2590 C.3       6 GLP5        0.0000 
    100 CA         62.7758    6.8358   -1.6362 C.3       3 GLC5        0.0000 
    101 CA         60.8430    6.8970   -0.7000 C.3       9 GLL5        0.0000 
    102 CA         64.8120    6.8600   -1.8890 C.3       6 GLP5        0.0000 
    103 CA         59.0628    6.1427   -1.3097 C.3       3 GLC5        0.0000 
    104 CA         58.9922    7.2230   -3.1020 C.3       3 GLC5        0.0000 
    105 CA         60.6360    6.7260   -2.0670 C.3       9 GLL5        0.0000 
    106 CA         57.4570    8.3380   -3.7290 C.3       6 GLP5        0.0000 
    107 CA         58.9180    5.4625   -2.3832 C.3       3 GLC5        0.0000 
    108 CA         60.4190    5.4900   -2.8830 C.3       9 GLL5        0.0000 
    109 CA         63.1700    5.8860    0.3503 C.3       3 GLC5        0.0000 
    110 CA         60.9870    5.6750    0.2240 C.3       9 GLL5        0.0000 
    111 CA         62.0177    5.7560   -8.0377 C.3       3 GLC5        0.0000 
    112 CA         61.7960    5.9500   -9.8820 C.3       6 GLP5        0.0000 
    113 CA         60.2290    1.6837   -2.7265 C.3       3 GLC5        0.0000 
    114 CA         58.3485    1.0162   -4.3800 C.3       3 GLC5        0.0000 
    115 CA         59.6800    2.7500   -4.1990 C.3       9 GLL5        0.0000 
    116 CA         56.7130   -0.1360   -4.1220 C.3       6 GLP5        0.0000 
    117 CA         59.2218    2.2245   -6.9895 C.3       3 GLC5        0.0000 
    118 CA         62.1448    2.3260   -9.0880 C.3       3 GLC5        0.0000 
    119 CA         62.3890    3.5940  -10.6660 C.3       6 GLP5        0.0000 
    120 CA         64.8659    0.5586   -4.4459 C.3       3 GLC5        0.0000 
    121 CA         63.4509   -1.8659   -6.8989 C.3       3 GLC5        0.0000 
    122 CA         65.3490   -0.7430   -5.9490 C.3       9 GLL5        0.0000 
    123 CA         65.7138   -0.7943   -8.7925 C.3       3 GLC5        0.0000 
    124 CA         66.4250   -1.5500   -6.6350 C.3       9 GLL5        0.0000 
@<TRIPOS>BOND
@<TRIPOS>SUBSTRUCTURE
     1 ALC1        4 GROUP        1 X    ALC  0     ROOT ALC X 1
     2 SEC2        1 GROUP        1 X    SEC  0     **** SEC X 2
     3 GLC5       12 GROUP        1 X    GLC  0     **** GLC X 6
     4 ALP1        6 GROUP        1 Y    ALP  0     ROOT ALP Y 8
     5 SEP2        3 GROUP        1 Y    SEP  0     **** SEP Y 9
     6 GLP5       14 GROUP        1 Y    GLP  0     **** GLP Y 13
     7 ALL1        5 GROUP        1 Z    ALL  0     ROOT ALL Z 15
     8 SEL2        2 GROUP        1 Z    SEL  0     **** SEL Z 16
     9 GLL5       13 GROUP        1 Z    GLL  0     **** GLL Z 20
@<TRIPOS>SET

