#    Name: 1rk3_VDX_1_ligand
#    Modification time : Tue Mar 25 00:49:54 2014

@<TRIPOS>MOLECULE
1rk3_VDX_1_ligand
   72    74     1     0     0
SMALL
NO_CHARGES


@<TRIPOS>ATOM
      1 O2         58.8620    8.2470    1.1940 O.3       1 VDX500      0.0000 
      2 O3         65.8380   -2.5630   -7.4170 O.3       1 VDX500      0.0000 
      3 C1         60.3880    5.7130    1.6510 C.3       1 VDX500      0.0000 
      4 C2         60.7620    7.0780    2.3160 C.3       1 VDX500      0.0000 
      5 C3         60.2910    8.3050    1.4000 C.3       1 VDX500      0.0000 
      6 C4         61.0320    8.2370    0.0000 C.3       1 VDX500      0.0000 
      7 C5         60.8430    6.8970   -0.7000 C.2       1 VDX500      0.0000 
      8 C6         60.6360    6.7260   -2.0670 C.2       1 VDX500      0.0000 
      9 C7         60.4190    5.4900   -2.8830 C.2       1 VDX500      0.0000 
     10 C8         60.4810    5.4120   -4.1780 C.2       1 VDX500      0.0000 
     11 C9         60.9120    6.6570   -5.1020 C.3       1 VDX500      0.0000 
     12 C10        60.9870    5.6750    0.2240 C.2       1 VDX500      0.0000 
     13 C11        62.2950    6.3060   -5.8690 C.3       1 VDX500      0.0000 
     14 C12        62.1840    4.8180   -6.5180 C.3       1 VDX500      0.0000 
     15 C13        61.6540    3.6030   -5.5550 C.3       1 VDX500      0.0000 
     16 C14        60.2490    4.1270   -4.9500 C.3       1 VDX500      0.0000 
     17 C15        59.6800    2.7500   -4.1990 C.3       1 VDX500      0.0000 
     18 C16        60.2880    1.5870   -5.0770 C.3       1 VDX500      0.0000 
     19 C17        61.1350    2.3010   -6.2110 C.3       1 VDX500      0.0000 
     20 C18        62.8850    3.4300   -4.4240 C.3       1 VDX500      0.0000 
     21 C19        61.7210    4.5890   -0.1930 C.2       1 VDX500      0.0000 
     22 C20        62.3040    1.5010   -6.9660 C.3       1 VDX500      0.0000 
     23 C21        61.4970    0.6150   -8.0540 C.3       1 VDX500      0.0000 
     24 C22        63.1090    0.4390   -6.1310 C.3       1 VDX500      0.0000 
     25 C23        64.4720    0.0960   -6.7340 C.3       1 VDX500      0.0000 
     26 C24        65.3490   -0.7430   -5.9490 C.3       1 VDX500      0.0000 
     27 C25        66.4250   -1.5500   -6.6350 C.3       1 VDX500      0.0000 
     28 C26        67.2700   -0.6230   -7.4810 C.3       1 VDX500      0.0000 
     29 C27        67.4000   -2.2490   -5.6110 C.3       1 VDX500      0.0000 
     30 O1         60.9450    4.6050    2.4230 O.3       1 VDX500      0.0000 
     31 H          59.3308    5.6525    1.5764 H         1 VDX500      0.0000 
     32 H          61.8303    7.1409    2.4347 H         1 VDX500      0.0000 
     33 H          60.2669    7.1631    3.2684 H         1 VDX500      0.0000 
     34 H          60.5968    9.2025    1.8873 H         1 VDX500      0.0000 
     35 H          62.0928    8.4206    0.1780 H         1 VDX500      0.0000 
     36 H          60.6392    9.0433   -0.6216 H         1 VDX500      0.0000 
     37 H          60.6241    7.6319   -2.6806 H         1 VDX500      0.0000 
     38 H          60.1977    4.6359   -2.2753 H         1 VDX500      0.0000 
     39 H          61.0774    7.5052   -4.4812 H         1 VDX500      0.0000 
     40 H          60.1552    6.8224   -5.8315 H         1 VDX500      0.0000 
     41 H          63.0862    6.3057   -5.1620 H         1 VDX500      0.0000 
     42 H          62.4360    7.0052   -6.6546 H         1 VDX500      0.0000 
     43 H          63.1773    4.5357   -6.8908 H         1 VDX500      0.0000 
     44 H          61.5087    4.8744   -7.3818 H         1 VDX500      0.0000 
     45 H          59.6244    4.2630   -5.8219 H         1 VDX500      0.0000 
     46 H          58.6462    2.7660   -4.2791 H         1 VDX500      0.0000 
     47 H          60.0841    2.7363   -3.2440 H         1 VDX500      0.0000 
     48 H          59.5030    1.0414   -5.5254 H         1 VDX500      0.0000 
     49 H          60.9342    1.0016   -4.4815 H         1 VDX500      0.0000 
     50 H          60.4042    2.6360   -6.9798 H         1 VDX500      0.0000 
     51 H          62.9126    2.1383   -7.4927 H         1 VDX500      0.0000 
     52 H          62.4987   -0.4678   -6.0600 H         1 VDX500      0.0000 
     53 H          63.2431    0.8363   -5.1191 H         1 VDX500      0.0000 
     54 H          64.9794    1.0703   -6.9816 H         1 VDX500      0.0000 
     55 H          64.2809   -0.3704   -7.7410 H         1 VDX500      0.0000 
     56 H          64.7288   -1.4693   -5.3272 H         1 VDX500      0.0000 
     57 H          65.8593   -0.1170   -5.1449 H         1 VDX500      0.0000 
     58 H          63.7569    3.2000   -4.8563 H         1 VDX500      0.0000 
     59 H          63.0297    4.2701   -3.9011 H         1 VDX500      0.0000 
     60 H          62.6845    2.7053   -3.7647 H         1 VDX500      0.0000 
     61 H          62.1135    0.0564   -8.6089 H         1 VDX500      0.0000 
     62 H          60.8489   -0.0091   -7.6176 H         1 VDX500      0.0000 
     63 H          60.9731    1.1878   -8.6844 H         1 VDX500      0.0000 
     64 H          67.6903    0.1002   -6.9330 H         1 VDX500      0.0000 
     65 H          68.0120   -1.1119   -7.9397 H         1 VDX500      0.0000 
     66 H          66.7300   -0.1747   -8.1933 H         1 VDX500      0.0000 
     67 H          68.1163   -2.7692   -6.0761 H         1 VDX500      0.0000 
     68 H          67.8572   -1.5841   -5.0204 H         1 VDX500      0.0000 
     69 H          66.9152   -2.8875   -5.0132 H         1 VDX500      0.0000 
     70 H          58.6328    9.1018    0.7284 H         1 VDX500      0.0000 
     71 H          66.4154   -1.9856   -6.8396 H         1 VDX500      0.0000 
     72 H          61.9236    4.6127    2.2175 H         1 VDX500      0.0000 
@<TRIPOS>BOND
     1    5    1 1    
     2   70    1 1    
     3   27    2 1    
     4   71    2 1    
     5    4    3 1    
     6   12    3 1    
     7   30    3 1    
     8   31    3 1    
     9    5    4 1    
    10   32    4 1    
    11   33    4 1    
    12    6    5 1    
    13   34    5 1    
    14    7    6 1    
    15   35    6 1    
    16   36    6 1    
    17    8    7 2    
    18   12    7 1    
    19    9    8 1    
    20   37    8 1    
    21   10    9 2    
    22   38    9 1    
    23   11   10 1    
    24   16   10 1    
    25   13   11 1    
    26   39   11 1    
    27   40   11 1    
    28   21   12 2    
    29   14   13 1    
    30   41   13 1    
    31   42   13 1    
    32   15   14 1    
    33   43   14 1    
    34   44   14 1    
    35   16   15 1    
    36   19   15 1    
    37   20   15 1    
    38   17   16 1    
    39   45   16 1    
    40   18   17 1    
    41   46   17 1    
    42   47   17 1    
    43   19   18 1    
    44   48   18 1    
    45   49   18 1    
    46   22   19 1    
    47   50   19 1    
    48   58   20 1    
    49   59   20 1    
    50   60   20 1    
    51   23   22 1    
    52   24   22 1    
    53   51   22 1    
    54   61   23 1    
    55   62   23 1    
    56   63   23 1    
    57   25   24 1    
    58   52   24 1    
    59   53   24 1    
    60   26   25 1    
    61   54   25 1    
    62   55   25 1    
    63   27   26 1    
    64   56   26 1    
    65   57   26 1    
    66   28   27 1    
    67   29   27 1    
    68   64   28 1    
    69   65   28 1    
    70   66   28 1    
    71   67   29 1    
    72   68   29 1    
    73   69   29 1    
    74   72   30 1    
@<TRIPOS>SUBSTRUCTURE
     1 VDX500      1 GROUP   
@<TRIPOS>SET

