#    Name: 2ijm_ATP_1_INTS_M
#    Modification time : Tue Mar 25 18:19:08 2014

@<TRIPOS>MOLECULE
2ijm_ATP_1_INTS_M
   57     0    12     0     0
SMALL
NO_CHARGES


@<TRIPOS>ATOM
      1 NZ          6.4745    4.2670    6.8625 N.4       3 LYC4        0.0000 
      2 NZ          6.1930    2.6230    6.4370 N.4      11 LYL4        0.0000 
      3 NZ          6.7560    5.9110    7.2880 N.4       7 LYP4        0.0000 
      4 N           5.4570    3.7295   12.2345 N.am      2 SEC2        0.0000 
      5 N           4.9770    3.5800   11.0590 N.am     10 SEL2        0.0000 
      6 N           5.9370    3.8790   13.4100 N.am      6 SEP2        0.0000 
      7 NZ          5.7880    5.9165    8.4620 N.4       3 LYC4        0.0000 
      8 NZ          4.8200    5.9220    9.6360 N.4      11 LYL4        0.0000 
      9 NZ          5.3285    5.5780    7.2895 N.4       3 LYC4        0.0000 
     10 NZ          3.9010    5.2450    7.2910 N.4      11 LYL4        0.0000 
     11 N           5.3285    5.5780    7.2895 N.am      2 SEC2        0.0000 
     12 N           3.9010    5.2450    7.2910 N.am     10 SEL2        0.0000 
     13 N           6.7560    5.9110    7.2880 N.am      6 SEP2        0.0000 
     14 CA          3.4190    6.4220   11.6515 C.3       4 GLC5        0.0000 
     15 CA          2.1320    6.9480   10.2630 C.3      12 GLL5        0.0000 
     16 CA          4.7060    5.8960   13.0400 C.3       8 GLP5        0.0000 
     17 CA          0.4970    9.1315   11.5075 C.3       4 GLC5        0.0000 
     18 CA          0.8850    7.7910   10.1270 C.3      12 GLL5        0.0000 
     19 CA          0.1090   10.4720   12.8880 C.3       8 GLP5        0.0000 
     20 CA         -0.8660    8.3715    6.4565 C.3       4 GLC5        0.0000 
     21 CA         -0.6630    8.5800    8.5430 C.3      12 GLL5        0.0000 
     22 CA         -1.0690    8.1630    4.3700 C.3       8 GLP5        0.0000 
     23 CA          0.6060   11.8070    9.1455 C.3       4 GLC5        0.0000 
     24 CA          0.4310    9.6220    8.7110 C.3      12 GLL5        0.0000 
     25 CA          0.7810   13.9920    9.5800 C.3       8 GLP5        0.0000 
     26 CA          0.2700   10.0470   10.7995 C.3       4 GLC5        0.0000 
     27 CA          2.2290   10.6335    8.9485 C.3       4 GLC5        0.0000 
     28 CA          4.0270   11.6450    9.1860 C.3       8 GLP5        0.0000 
     29 CA          4.1480   10.3835    3.7850 C.3       4 GLC5        0.0000 
     30 CA          2.1370   11.1450    4.2460 C.3      12 GLL5        0.0000 
     31 CA          6.1590    9.6220    3.3240 C.3       8 GLP5        0.0000 
     32 O           3.3520   11.9165    2.3255 O.2       1 ALC1        0.0000 
     33 O           3.1100   10.9860    3.3140 O.2       9 ALL1        0.0000 
     34 O           3.5940   12.8470    1.3370 O.2       5 ALP1        0.0000 
     35 N           0.6090   12.8000    2.8515 N.am      2 SEC2        0.0000 
     36 N           1.1350   12.0320    4.0680 N.am     10 SEL2        0.0000 
     37 N           0.0830   13.5680    1.6350 N.am      6 SEP2        0.0000 
     38 CA          0.5435   13.3180    6.5455 C.3       4 GLC5        0.0000 
     39 CA          0.1610   12.1900    4.9850 C.3      12 GLL5        0.0000 
     40 CA          0.9260   14.4460    8.1060 C.3       8 GLP5        0.0000 
     41 CA          2.2820   12.9110    5.1620 C.3       4 GLC5        0.0000 
     42 CA          4.4030   13.6320    5.3390 C.3       8 GLP5        0.0000 
     43 CA          0.3090   13.8590    4.6580 C.3       4 GLC5        0.0000 
     44 CA          0.4570   15.5280    4.3310 C.3       8 GLP5        0.0000 
     45 CA         -0.5455   12.6895    3.0965 C.3       4 GLC5        0.0000 
     46 CA         -1.2520   13.1890    1.2080 C.3       8 GLP5        0.0000 
     47 CA         -0.4540   10.1765    4.6775 C.3       4 GLC5        0.0000 
     48 CA          0.9855   12.5185    7.2755 C.3       4 GLC5        0.0000 
     49 CA          1.0450   10.5910    6.4450 C.3      12 GLL5        0.0000 
     50 CA         -0.0120    9.3770    5.4075 C.3       4 GLC5        0.0000 
     51 CA          3.0758    8.5207   10.3930 C.3       4 GLC5        0.0000 
     52 CA          4.6430    9.6720   10.5910 C.3       8 GLP5        0.0000 
     53 CA          2.8085   11.0585    7.5770 C.3       4 GLC5        0.0000 
     54 CA          3.2695   12.1905    5.1037 C.3       4 GLC5        0.0000 
     55 CA          2.1350   10.3530    5.4910 C.3      12 GLL5        0.0000 
     56 CA          1.4950    9.5655    3.8153 C.3       4 GLC5        0.0000 
     57 CA          0.8540    8.3820    2.7620 C.3       8 GLP5        0.0000 
@<TRIPOS>BOND
@<TRIPOS>SUBSTRUCTURE
     1 ALC1       32 GROUP        1 X    ALC  0     ROOT ALC X 1
     2 SEC2        4 GROUP        1 X    SEC  0     **** SEC X 2
     3 LYC4        1 GROUP        1 X    LYC  0     **** LYC X 4
     4 GLC5       14 GROUP        1 X    GLC  0     **** GLC X 6
     5 ALP1       34 GROUP        1 Y    ALP  0     ROOT ALP Y 8
     6 SEP2        6 GROUP        1 Y    SEP  0     **** SEP Y 9
     7 LYP4        3 GROUP        1 Y    LYP  0     **** LYP Y 11
     8 GLP5       16 GROUP        1 Y    GLP  0     **** GLP Y 13
     9 ALL1       33 GROUP        1 Z    ALL  0     ROOT ALL Z 15
    10 SEL2        5 GROUP        1 Z    SEL  0     **** SEL Z 16
    11 LYL4        2 GROUP        1 Z    LYL  0     **** LYL Z 18
    12 GLL5       15 GROUP        1 Z    GLL  0     **** GLL Z 20
@<TRIPOS>SET

