#    Name: 2ijm_ATP_1_ligand
#    Modification time : Tue Mar 25 18:19:08 2014

@<TRIPOS>MOLECULE
2ijm_ATP_1_ligand
   43    45     1     0     0
SMALL
NO_CHARGES


@<TRIPOS>ATOM
      1 PG          5.0980    2.1140    7.3490 P.3       1 ATP690      0.0000 
      2 O1G         6.1930    2.6230    6.4370 O.co2     1 ATP690      0.0000 
      3 O2G         5.3460    0.7150    7.8860 O.co2     1 ATP690      0.0000 
      4 O3G         3.7000    2.3950    6.8280 O.co2     1 ATP690      0.0000 
      5 PB          4.2210    3.0230    9.8930 P.3       1 ATP690      0.0000 
      6 O1B         3.5480    1.6740    9.9970 O.co2     1 ATP690      0.0000 
      7 O2B         4.9770    3.5800   11.0590 O.co2     1 ATP690      0.0000 
      8 O3B         5.2570    3.0420    8.6600 O.3       1 ATP690      0.0000 
      9 PA          3.6790    5.4570    8.7670 P.3       1 ATP690      0.0000 
     10 O1A         4.8200    5.9220    9.6360 O.co2     1 ATP690      0.0000 
     11 O2A         3.9010    5.2450    7.2910 O.co2     1 ATP690      0.0000 
     12 O3A         3.1290    4.0970    9.4040 O.3       1 ATP690      0.0000 
     13 O5'         2.4700    6.4830    8.9660 O.3       1 ATP690      0.0000 
     14 C5'         2.1320    6.9480   10.2630 C.3       1 ATP690      0.0000 
     15 C4'         0.8850    7.7910   10.1270 C.3       1 ATP690      0.0000 
     16 O4'         1.2670    9.1130    9.7570 O.3       1 ATP690      0.0000 
     17 C3'        -0.0180    7.3070    9.0040 C.3       1 ATP690      0.0000 
     18 O3'        -1.0110    6.3840    9.4520 O.3       1 ATP690      0.0000 
     19 C2'        -0.6630    8.5800    8.5430 C.3       1 ATP690      0.0000 
     20 O2'        -1.7230    8.8240    9.4710 O.3       1 ATP690      0.0000 
     21 C1'         0.4310    9.6220    8.7110 C.3       1 ATP690      0.0000 
     22 N9          1.2550    9.7600    7.4750 N.pl3     1 ATP690      0.0000 
     23 C8          2.3900    9.0630    7.2140 C.2       1 ATP690      0.0000 
     24 N7          2.9200    9.4150    6.0240 N.2       1 ATP690      0.0000 
     25 C5          2.1350   10.3530    5.4910 C.ar      1 ATP690      0.0000 
     26 C6          2.1370   11.1450    4.2460 C.ar      1 ATP690      0.0000 
     27 N6          3.1100   10.9860    3.3140 N.pl3     1 ATP690      0.0000 
     28 N1          1.1350   12.0320    4.0680 N.ar      1 ATP690      0.0000 
     29 C2          0.1610   12.1900    4.9850 C.ar      1 ATP690      0.0000 
     30 N3          0.1060   11.5020    6.1280 N.ar      1 ATP690      0.0000 
     31 C4          1.0450   10.5910    6.4450 C.ar      1 ATP690      0.0000 
     32 H           2.9176    7.5683   10.6919 H         1 ATP690      0.0000 
     33 H           1.9165    6.1286   10.9472 H         1 ATP690      0.0000 
     34 H           0.3381    7.7898   11.0374 H         1 ATP690      0.0000 
     35 H           0.5916    6.9369    8.2195 H         1 ATP690      0.0000 
     36 H          -0.9532    8.5021    7.5633 H         1 ATP690      0.0000 
     37 H          -0.0052   10.5443    8.9839 H         1 ATP690      0.0000 
     38 H           2.7736    8.3886    7.8177 H         1 ATP690      0.0000 
     39 H           3.0510   11.5788    2.5108 H         1 ATP690      0.0000 
     40 H           3.8001   10.2901    3.5127 H         1 ATP690      0.0000 
     41 H          -0.6065   12.9055    4.7823 H         1 ATP690      0.0000 
     42 H          -0.5189    5.7371   10.0346 H         1 ATP690      0.0000 
     43 H          -1.9911    7.9190    9.8013 H         1 ATP690      0.0000 
@<TRIPOS>BOND
     1    2    1 ar   
     2    3    1 ar   
     3    4    1 ar   
     4    8    1 1    
     5    6    5 ar   
     6    7    5 ar   
     7    8    5 1    
     8   12    5 1    
     9   10    9 ar   
    10   11    9 ar   
    11   12    9 1    
    12   13    9 1    
    13   14   13 1    
    14   15   14 1    
    15   32   14 1    
    16   33   14 1    
    17   16   15 1    
    18   17   15 1    
    19   34   15 1    
    20   21   16 1    
    21   18   17 1    
    22   19   17 1    
    23   35   17 1    
    24   42   18 1    
    25   20   19 1    
    26   21   19 1    
    27   36   19 1    
    28   43   20 1    
    29   22   21 1    
    30   37   21 1    
    31   23   22 1    
    32   31   22 1    
    33   24   23 2    
    34   38   23 1    
    35   25   24 1    
    36   26   25 ar   
    37   31   25 ar   
    38   27   26 1    
    39   28   26 ar   
    40   39   27 1    
    41   40   27 1    
    42   29   28 ar   
    43   30   29 ar   
    44   41   29 1    
    45   31   30 ar   
@<TRIPOS>SUBSTRUCTURE
     1 ATP690      1 GROUP   
@<TRIPOS>SET

