#    Name: 3sgv_2BJ_2_INTS_M
#    Modification time : Tue Mar 25 12:35:39 2014

@<TRIPOS>MOLECULE
3sgv_2BJ_2_INTS_M
   56     0     9     0     0
SMALL
NO_CHARGES


@<TRIPOS>ATOM
      1 O          17.2655    1.9260   29.8730 O.2       1 ALC1        0.0000 
      2 O          18.6390    1.4480   30.0150 O.2       7 ALL1        0.0000 
      3 O          15.8920    2.4040   29.7310 O.2       4 ALP1        0.0000 
      4 CA         14.4145   -1.7565   31.9055 C.3       3 GLC5        0.0000 
      5 CA         16.5350   -1.8780   32.0500 C.3       9 GLL5        0.0000 
      6 CA         12.2940   -1.6350   31.7610 C.3       6 GLP5        0.0000 
      7 N          14.4085   -0.9625   30.7105 N.am      2 SEC2        0.0000 
      8 N          15.3800   -1.2280   29.6900 N.am      8 SEL2        0.0000 
      9 N          13.4370   -0.6970   31.7310 N.am      5 SEP2        0.0000 
     10 CA         20.3910    0.1575   33.9065 C.3       3 GLC5        0.0000 
     11 CA         18.9250   -0.6300   32.8460 C.3       9 GLL5        0.0000 
     12 CA         21.8570    0.9450   34.9670 C.3       6 GLP5        0.0000 
     13 CA         18.5680    5.5570   26.1795 C.3       3 GLC5        0.0000 
     14 CA         19.1380    4.1610   27.5270 C.3       9 GLL5        0.0000 
     15 CA         17.9980    6.9530   24.8320 C.3       6 GLP5        0.0000 
     16 CA         26.8670    9.1265   28.5965 C.3       3 GLC5        0.0000 
     17 CA         25.4240    8.2760   30.0310 C.3       9 GLL5        0.0000 
     18 CA         28.3100    9.9770   27.1620 C.3       6 GLP5        0.0000 
     19 CA         26.1665    9.1650   31.1665 C.3       3 GLC5        0.0000 
     20 CA         26.9090   10.0540   32.3020 C.3       6 GLP5        0.0000 
     21 CA         21.6415    7.7100   32.2560 C.3       3 GLC5        0.0000 
     22 CA         22.4000    8.0410   30.5400 C.3       9 GLL5        0.0000 
     23 CA         20.8830    7.3790   33.9720 C.3       6 GLP5        0.0000 
     24 CA         20.6780    8.1580   29.6485 C.3       3 GLC5        0.0000 
     25 CA         18.9560    8.2750   28.7570 C.3       6 GLP5        0.0000 
     26 CA         20.7740    7.0210   29.1350 C.3       3 GLC5        0.0000 
     27 CA         22.5920    5.7670   29.5130 C.3       9 GLL5        0.0000 
     28 CA         15.8801    0.0200   31.8390 C.3       3 GLC5        0.0000 
     29 CA         14.5810    1.3810   31.9770 C.3       6 GLP5        0.0000 
     30 CA         16.3502    0.0920   33.4065 C.3       3 GLC5        0.0000 
     31 CA         16.9880   -2.0160   33.3300 C.3       9 GLL5        0.0000 
     32 CA         15.1510    1.8840   33.2950 C.3       6 GLP5        0.0000 
     33 CA         19.3338    1.8150   27.2830 C.3       3 GLC5        0.0000 
     34 CA         19.3170    2.3380   29.2010 C.3       9 GLL5        0.0000 
     35 CA         19.7430    0.8830   25.8020 C.3       6 GLP5        0.0000 
     36 CA         19.7885    2.5752   26.6800 C.3       3 GLC5        0.0000 
     37 CA         20.5300    4.3740   27.5890 C.3       9 GLL5        0.0000 
     38 CA         18.9215    5.0337   29.1110 C.3       3 GLC5        0.0000 
     39 CA         18.0090    5.8000   30.6640 C.3       6 GLP5        0.0000 
     40 CA         23.9408    5.2945   26.7832 C.3       3 GLC5        0.0000 
     41 CA         23.2680    4.7580   28.9160 C.3       9 GLL5        0.0000 
     42 CA         23.9180    5.7920   24.7800 C.3       6 GLP5        0.0000 
     43 CA         20.4058    3.9954   26.0513 C.3       3 GLC5        0.0000 
     44 CA         21.2770    3.5420   28.3950 C.3       9 GLL5        0.0000 
     45 CA         20.2560    4.0860   24.1260 C.3       6 GLP5        0.0000 
     46 CA         20.3725    1.9735   27.3010 C.3       3 GLC5        0.0000 
     47 CA         18.9174    4.2332   29.8242 C.3       3 GLC5        0.0000 
     48 CA         20.7270    2.5860   29.2050 C.3       9 GLL5        0.0000 
     49 CA         26.7435    4.8403   28.1122 C.3       3 GLC5        0.0000 
     50 CA         24.6590    4.8360   28.6570 C.3       9 GLL5        0.0000 
     51 CA         28.5260    4.2600   27.3550 C.3       6 GLP5        0.0000 
     52 CA         24.3679    7.7516   27.8394 C.3       3 GLC5        0.0000 
     53 CA         25.2630    6.0050   29.0820 C.3       9 GLL5        0.0000 
     54 CA         23.5620    8.1060   25.9760 C.3       6 GLP5        0.0000 
     55 CA         23.2383    7.2275   27.8430 C.3       3 GLC5        0.0000 
     56 CA         23.2370    6.9310   29.9070 C.3       9 GLL5        0.0000 
@<TRIPOS>BOND
@<TRIPOS>SUBSTRUCTURE
     1 ALC1        1 GROUP        1 X    ALC  0     ROOT ALC X 1
     2 SEC2        7 GROUP        1 X    SEC  0     **** SEC X 2
     3 GLC5        4 GROUP        1 X    GLC  0     **** GLC X 6
     4 ALP1        3 GROUP        1 Y    ALP  0     ROOT ALP Y 8
     5 SEP2        9 GROUP        1 Y    SEP  0     **** SEP Y 9
     6 GLP5        6 GROUP        1 Y    GLP  0     **** GLP Y 13
     7 ALL1        2 GROUP        1 Z    ALL  0     ROOT ALL Z 15
     8 SEL2        8 GROUP        1 Z    SEL  0     **** SEL Z 16
     9 GLL5        5 GROUP        1 Z    GLL  0     **** GLL Z 20
@<TRIPOS>SET

