#    Name: 3sgv_2BJ_2_ligand
#    Modification time : Tue Mar 25 12:35:39 2014

@<TRIPOS>MOLECULE
3sgv_2BJ_2_ligand
   47    49     1     0     0
SMALL
NO_CHARGES


@<TRIPOS>ATOM
      1 C1         18.4060   -0.4730   31.5400 C.ar      1 2BJ3001     0.0000 
      2 N1         18.4700   -1.6820   34.9630 N.pl3     1 2BJ3001     0.0000 
      3 O1         19.6360   -1.1970   35.3260 O.2       1 2BJ3001     0.0000 
      4 C2         17.2410   -1.1350   31.1640 C.ar      1 2BJ3001     0.0000 
      5 N2         18.6390    1.4480   30.0150 N.am      1 2BJ3001     0.0000 
      6 O2         17.6470   -2.6480   35.7470 O.2       1 2BJ3001     0.0000 
      7 C3         16.5350   -1.8780   32.0500 C.ar      1 2BJ3001     0.0000 
      8 O3         17.3730   -0.9160   28.8120 O.co2     1 2BJ3001     0.0000 
      9 C4         16.9880   -2.0160   33.3300 C.ar      1 2BJ3001     0.0000 
     10 O4         15.3800   -1.2280   29.6900 O.co2     1 2BJ3001     0.0000 
     11 C5         18.1110   -1.3840   33.7060 C.ar      1 2BJ3001     0.0000 
     12 O5         20.4550    0.1280   30.4670 O.2       1 2BJ3001     0.0000 
     13 C6         18.9250   -0.6300   32.8460 C.ar      1 2BJ3001     0.0000 
     14 O6         22.6960    3.6460   28.4740 O.3       1 2BJ3001     0.0000 
     15 C7         16.6200   -1.0590   29.7710 C.2       1 2BJ3001     0.0000 
     16 C8         19.2350    0.3580   30.5920 C.2       1 2BJ3001     0.0000 
     17 C9         19.3170    2.3380   29.2010 C.ar      1 2BJ3001     0.0000 
     18 C10        18.5320    3.1560   28.3270 C.ar      1 2BJ3001     0.0000 
     19 C11        19.1380    4.1610   27.5270 C.ar      1 2BJ3001     0.0000 
     20 C12        20.5300    4.3740   27.5890 C.ar      1 2BJ3001     0.0000 
     21 C13        23.2680    4.7580   28.9160 C.ar      1 2BJ3001     0.0000 
     22 C14        21.2770    3.5420   28.3950 C.ar      1 2BJ3001     0.0000 
     23 C15        20.7270    2.5860   29.2050 C.ar      1 2BJ3001     0.0000 
     24 C16        24.6590    4.8360   28.6570 C.ar      1 2BJ3001     0.0000 
     25 C17        25.2630    6.0050   29.0820 C.ar      1 2BJ3001     0.0000 
     26 C18        24.5840    7.0320   29.6670 C.ar      1 2BJ3001     0.0000 
     27 C19        25.4240    8.2760   30.0310 C.3       1 2BJ3001     0.0000 
     28 C20        23.2370    6.9310   29.9070 C.ar      1 2BJ3001     0.0000 
     29 C21        22.4000    8.0410   30.5400 C.3       1 2BJ3001     0.0000 
     30 C22        22.5920    5.7670   29.5130 C.ar      1 2BJ3001     0.0000 
     31 H          17.6146    1.6222   30.1963 H         1 2BJ3001     0.0000 
     32 H          15.6538   -2.3416   31.7613 H         1 2BJ3001     0.0000 
     33 H          16.4609   -2.6074   33.9999 H         1 2BJ3001     0.0000 
     34 H          19.7842   -0.2417   33.1233 H         1 2BJ3001     0.0000 
     35 H          17.5200    3.0108   28.2814 H         1 2BJ3001     0.0000 
     36 H          18.5588    4.7291   26.9058 H         1 2BJ3001     0.0000 
     37 H          20.9550    5.1205   27.0514 H         1 2BJ3001     0.0000 
     38 H          21.3145    2.0204   29.8385 H         1 2BJ3001     0.0000 
     39 H          25.1446    4.1019   28.2061 H         1 2BJ3001     0.0000 
     40 H          26.3078    6.0995   28.9421 H         1 2BJ3001     0.0000 
     41 H          21.5665    5.6829   29.6870 H         1 2BJ3001     0.0000 
     42 H          26.1571    8.0540   30.6739 H         1 2BJ3001     0.0000 
     43 H          25.8542    8.6825   29.2250 H         1 2BJ3001     0.0000 
     44 H          24.8667    8.9889   30.4567 H         1 2BJ3001     0.0000 
     45 H          22.7259    8.2756   31.4558 H         1 2BJ3001     0.0000 
     46 H          22.4239    8.8801   29.9965 H         1 2BJ3001     0.0000 
     47 H          21.4396    7.7770   30.6294 H         1 2BJ3001     0.0000 
@<TRIPOS>BOND
     1    4    1 ar   
     2   13    1 ar   
     3   16    1 1    
     4    3    2 2    
     5    6    2 2    
     6   11    2 1    
     7    7    4 ar   
     8   15    4 1    
     9   16    5 am   
    10   17    5 1    
    11   31    5 1    
    12    9    7 ar   
    13   32    7 1    
    14   15    8 ar   
    15   11    9 ar   
    16   33    9 1    
    17   15   10 ar   
    18   13   11 ar   
    19   16   12 2    
    20   34   13 1    
    21   21   14 1    
    22   22   14 1    
    23   18   17 ar   
    24   23   17 ar   
    25   19   18 ar   
    26   35   18 1    
    27   20   19 ar   
    28   36   19 1    
    29   22   20 ar   
    30   37   20 1    
    31   24   21 ar   
    32   30   21 ar   
    33   23   22 ar   
    34   38   23 1    
    35   25   24 ar   
    36   39   24 1    
    37   26   25 ar   
    38   40   25 1    
    39   27   26 1    
    40   28   26 ar   
    41   42   27 1    
    42   43   27 1    
    43   44   27 1    
    44   29   28 1    
    45   30   28 ar   
    46   45   29 1    
    47   46   29 1    
    48   47   29 1    
    49   41   30 1    
@<TRIPOS>SUBSTRUCTURE
     1 2BJ3001     1 GROUP   
@<TRIPOS>SET

