#    Name: 2cwf_NDP_2_INTS_M
#    Modification time : Tue Mar 25 01:20:23 2014

@<TRIPOS>MOLECULE
2cwf_NDP_2_INTS_M
   97     0    12     0     0
SMALL
NO_CHARGES


@<TRIPOS>ATOM
      1 N          50.9980   52.2325   32.4060 N.am      2 SEC2        0.0000 
      2 N          51.5660   51.5070   31.2280 N.am     10 SEL2        0.0000 
      3 N          50.4300   52.9580   33.5840 N.am      6 SEP2        0.0000 
      4 CA         50.4950   54.3715   31.8045 C.3       4 GLC5        0.0000 
      5 CA         50.7410   54.4370   29.8360 C.3      12 GLL5        0.0000 
      6 CA         50.2490   54.3060   33.7730 C.3       8 GLP5        0.0000 
      7 CA         50.6960   58.4060   27.9480 C.3       4 GLC5        0.0000 
      8 CA         51.9730   57.0310   29.0460 C.3      12 GLL5        0.0000 
      9 CA         49.4190   59.7810   26.8500 C.3       8 GLP5        0.0000 
     10 N          50.3765   57.7670   27.3285 N.am      2 SEC2        0.0000 
     11 N          51.1440   58.0360   28.5670 N.am     10 SEL2        0.0000 
     12 N          49.6090   57.4980   26.0900 N.am      6 SEP2        0.0000 
     13 N          53.8185   59.8510   29.8115 N.am      2 SEC2        0.0000 
     14 N          53.8140   58.3050   30.1300 N.am     10 SEL2        0.0000 
     15 N          53.8230   61.3970   29.4930 N.am      6 SEP2        0.0000 
     16 CA         51.0550   55.8445   32.5995 C.3       4 GLC5        0.0000 
     17 CA         51.8610   57.3830   31.4260 C.3      12 GLL5        0.0000 
     18 CA         51.9705   57.3460   37.5695 C.3       4 GLC5        0.0000 
     19 CA         53.2180   57.5740   36.1790 C.3      12 GLL5        0.0000 
     20 CA         50.7230   57.1180   38.9600 C.3       8 GLP5        0.0000 
     21 CA         51.3525   58.3065   37.1775 C.3       4 GLC5        0.0000 
     22 CA         51.9820   59.4950   35.3950 C.3      12 GLL5        0.0000 
     23 CA         50.8255   57.6175   35.6270 C.3       4 GLC5        0.0000 
     24 CA         49.6690   55.7400   35.8590 C.3       8 GLP5        0.0000 
     25 CA         53.9675   60.2470   35.3995 C.3       4 GLC5        0.0000 
     26 CA         55.9530   60.9990   35.4040 C.3       8 GLP5        0.0000 
     27 NZ         49.0950   50.1540   29.4885 N.4       3 LYC4        0.0000 
     28 NZ         50.0980   50.6690   28.4990 N.4      11 LYL4        0.0000 
     29 NZ         48.0920   49.6390   30.4780 N.4       7 LYP4        0.0000 
     30 N          49.0950   50.1540   29.4885 N.am      2 SEC2        0.0000 
     31 N          50.0980   50.6690   28.4990 N.am     10 SEL2        0.0000 
     32 N          48.0920   49.6390   30.4780 N.am      6 SEP2        0.0000 
     33 N          48.9595   50.8345   27.6400 N.am      2 SEC2        0.0000 
     34 N          47.8210   51.0000   26.7810 N.am      6 SEP2        0.0000 
     35 N          52.5285   48.6410   29.3775 N.am      2 SEC2        0.0000 
     36 N          52.2830   49.6400   28.6950 N.am     10 SEL2        0.0000 
     37 N          52.7740   47.6420   30.0600 N.am      6 SEP2        0.0000 
     38 CA         53.7880   49.9935   23.1340 C.3       4 GLC5        0.0000 
     39 CA         52.6360   50.8790   24.5940 C.3      12 GLL5        0.0000 
     40 CA         54.9400   49.1080   21.6740 C.3       8 GLP5        0.0000 
     41 CA         51.3255   54.2505   24.0755 C.3       4 GLC5        0.0000 
     42 CA         52.0100   52.1430   23.9350 C.3      12 GLL5        0.0000 
     43 CA         50.6410   56.3580   24.2160 C.3       8 GLP5        0.0000 
     44 O          52.2980   54.0175   22.9530 O.2       1 ALC1        0.0000 
     45 O          52.9710   53.0210   23.3670 O.2       9 ALL1        0.0000 
     46 O          51.6250   55.0140   22.5390 O.2       5 ALP1        0.0000 
     47 CA         49.0975   51.3365   22.8310 C.3       4 GLC5        0.0000 
     48 CA         51.0460   51.5490   22.9520 C.3      12 GLL5        0.0000 
     49 CA         47.1490   51.1240   22.7100 C.3       8 GLP5        0.0000 
     50 N          51.0730   53.3310   20.8585 N.am      2 SEC2        0.0000 
     51 N          50.6430   52.4220   21.9410 N.am     10 SEL2        0.0000 
     52 N          51.5030   54.2400   19.7760 N.am      6 SEP2        0.0000 
     53 O          50.1390   53.4210   22.5960 O.2       1 ALC1        0.0000 
     54 O          50.6430   52.4220   21.9410 O.2       9 ALL1        0.0000 
     55 O          49.6350   54.4200   23.2510 O.2       5 ALP1        0.0000 
     56 CA         53.3590   49.7080   22.0855 C.3       4 GLC5        0.0000 
     57 CA         51.7780   50.3080   22.4970 C.3      12 GLL5        0.0000 
     58 CA         52.8175   49.1210   21.1900 C.3       4 GLC5        0.0000 
     59 CA         50.6950   49.1340   20.7060 C.3      12 GLL5        0.0000 
     60 CA         49.7635   50.8230   19.8050 C.3       4 GLC5        0.0000 
     61 CA         48.8320   52.5120   18.9040 C.3       8 GLP5        0.0000 
     62 CA         48.6240   49.7915   22.8620 C.3       4 GLC5        0.0000 
     63 CA         50.0990   48.4590   23.0140 C.3      12 GLL5        0.0000 
     64 CA         50.9495   47.7715   24.6985 C.3       4 GLC5        0.0000 
     65 CA         51.8000   47.0840   26.3830 C.3       8 GLP5        0.0000 
     66 N          54.8855   60.3725   29.5430 N.am      2 SEC2        0.0000 
     67 N          55.9480   59.3480   29.5930 N.am     10 SEL2        0.0000 
     68 N          57.4830   59.6990   29.0785 N.am      2 SEC2        0.0000 
     69 N          59.0180   60.0500   28.5640 N.am      6 SEP2        0.0000 
     70 NZ         56.2600   56.8900   32.0320 N.4       3 LYC4        0.0000 
     71 NZ         55.9420   57.0740   30.6390 N.4      11 LYL4        0.0000 
     72 NZ         56.6290   57.4090   34.5470 N.4       7 LYP4        0.0000 
     73 N          56.2600   56.8900   32.0320 N.am      2 SEC2        0.0000 
     74 N          55.9420   57.0740   30.6390 N.am     10 SEL2        0.0000 
     75 N          56.5780   56.7060   33.4250 N.am      6 SEP2        0.0000 
     76 CA         49.2205   54.4925   29.0685 C.3       4 GLC5        0.0000 
     77 CA         51.1990   55.9530   29.6680 C.3      12 GLL5        0.0000 
     78 CA         47.4710   53.7900   28.3850 C.3       8 GLP5        0.0000 
     79 CA         52.1623   59.4260   30.9378 C.3       4 GLC5        0.0000 
     80 CA         51.9560   61.5100   31.0440 C.3       8 GLP5        0.0000 
     81 CA         54.7512   58.4258   35.6222 C.3       4 GLC5        0.0000 
     82 CA         53.1090   57.0090   34.8640 C.3      12 GLL5        0.0000 
     83 CA         56.3390   59.5600   35.7230 C.3       8 GLP5        0.0000 
     84 CA         51.2276   56.6416   35.2866 C.3       4 GLC5        0.0000 
     85 CA         52.3513   49.0212   25.8175 C.3       4 GLC5        0.0000 
     86 CA         53.1690   51.0380   25.9100 C.3      12 GLL5        0.0000 
     87 CA         52.4485   51.8708   21.2112 C.3       4 GLC5        0.0000 
     88 CA         53.4850   52.8130   19.6980 C.3       8 GLP5        0.0000 
     89 CA         48.6947   49.5920   20.8840 C.3       4 GLC5        0.0000 
     90 CA         47.1290   50.5250   21.3340 C.3       8 GLP5        0.0000 
     91 CA         47.7108   48.3522   21.6632 C.3       4 GLC5        0.0000 
     92 CA         49.2200   47.4960   22.4960 C.3      12 GLL5        0.0000 
     93 CA         46.2740   49.2830   21.5420 C.3       8 GLP5        0.0000 
     94 CA         48.8522   48.2833   24.6055 C.3       4 GLC5        0.0000 
     95 CA         48.0450   48.5890   26.4560 C.3       8 GLP5        0.0000 
     96 CA         48.6661   46.3141   22.4401 C.3       4 GLC5        0.0000 
     97 CA         47.7090   44.6880   22.4810 C.3       8 GLP5        0.0000 
@<TRIPOS>BOND
@<TRIPOS>SUBSTRUCTURE
     1 ALC1       44 GROUP        1 X    ALC  0     ROOT ALC X 1
     2 SEC2        1 GROUP        1 X    SEC  0     **** SEC X 2
     3 LYC4       27 GROUP        1 X    LYC  0     **** LYC X 4
     4 GLC5        4 GROUP        1 X    GLC  0     **** GLC X 6
     5 ALP1       46 GROUP        1 Y    ALP  0     ROOT ALP Y 8
     6 SEP2        3 GROUP        1 Y    SEP  0     **** SEP Y 9
     7 LYP4       29 GROUP        1 Y    LYP  0     **** LYP Y 11
     8 GLP5        6 GROUP        1 Y    GLP  0     **** GLP Y 13
     9 ALL1       45 GROUP        1 Z    ALL  0     ROOT ALL Z 15
    10 SEL2        2 GROUP        1 Z    SEL  0     **** SEL Z 16
    11 LYL4       28 GROUP        1 Z    LYL  0     **** LYL Z 18
    12 GLL5        5 GROUP        1 Z    GLL  0     **** GLL Z 20
@<TRIPOS>SET

