#    Name: 2cwf_NDP_2_ligand
#    Modification time : Tue Mar 25 01:20:23 2014

@<TRIPOS>MOLECULE
2cwf_NDP_2_ligand
   74    78     1     0     0
SMALL
NO_CHARGES


@<TRIPOS>ATOM
      1 PA         52.2870   52.4260   30.3230 P.3       1 NDP1510     0.0000 
      2 O1A        51.5660   51.5070   31.2280 O.co2     1 NDP1510     0.0000 
      3 O2A        53.7280   52.7200   30.5160 O.co2     1 NDP1510     0.0000 
      4 O5B        52.0170   54.1390   30.0600 O.3       1 NDP1510     0.0000 
      5 C5B        50.7410   54.4370   29.8360 C.3       1 NDP1510     0.0000 
      6 C4B        51.1990   55.9530   29.6680 C.3       1 NDP1510     0.0000 
      7 O4B        51.1000   56.2070   31.1230 O.3       1 NDP1510     0.0000 
      8 C3B        51.9730   57.0310   29.0460 C.3       1 NDP1510     0.0000 
      9 O3B        51.1440   58.0360   28.5670 O.3       1 NDP1510     0.0000 
     10 C2B        52.8760   57.3010   30.2370 C.3       1 NDP1510     0.0000 
     11 O2B        53.8140   58.3050   30.1300 O.3       1 NDP1510     0.0000 
     12 C1B        51.8610   57.3830   31.4260 C.3       1 NDP1510     0.0000 
     13 N9A        52.4360   57.0660   32.7590 N.pl3     1 NDP1510     0.0000 
     14 C8A        53.1460   55.8920   33.0860 C.2       1 NDP1510     0.0000 
     15 N7A        53.5540   55.8400   34.3360 N.2       1 NDP1510     0.0000 
     16 C5A        53.1090   57.0090   34.8640 C.ar      1 NDP1510     0.0000 
     17 C6A        53.2180   57.5740   36.1790 C.ar      1 NDP1510     0.0000 
     18 N6A        53.8570   56.9190   37.1620 N.pl3     1 NDP1510     0.0000 
     19 N1A        52.6400   58.8210   36.4040 N.ar      1 NDP1510     0.0000 
     20 C2A        51.9820   59.4950   35.3950 C.ar      1 NDP1510     0.0000 
     21 N3A        51.8220   59.0430   34.1060 N.ar      1 NDP1510     0.0000 
     22 C4A        52.4090   57.7950   33.9070 C.ar      1 NDP1510     0.0000 
     23 O3         52.1830   51.9400   28.8070 O.3       1 NDP1510     0.0000 
     24 PN         51.4300   50.5890   28.2780 P.3       1 NDP1510     0.0000 
     25 O1N        50.0980   50.6690   28.4990 O.co2     1 NDP1510     0.0000 
     26 O2N        52.2830   49.6400   28.6950 O.co2     1 NDP1510     0.0000 
     27 O5D        51.8760   50.9880   26.6130 O.3       1 NDP1510     0.0000 
     28 C5D        53.1690   51.0380   25.9100 C.3       1 NDP1510     0.0000 
     29 C4D        52.6360   50.8790   24.5940 C.3       1 NDP1510     0.0000 
     30 O4D        52.6430   49.8950   23.5440 O.3       1 NDP1510     0.0000 
     31 C3D        52.0100   52.1430   23.9350 C.3       1 NDP1510     0.0000 
     32 O3D        52.9710   53.0210   23.3670 O.3       1 NDP1510     0.0000 
     33 C2D        51.0460   51.5490   22.9520 C.3       1 NDP1510     0.0000 
     34 O2D        50.6430   52.4220   21.9410 O.3       1 NDP1510     0.0000 
     35 C1D        51.7780   50.3080   22.4970 C.3       1 NDP1510     0.0000 
     36 N1N        50.8280   49.2680   22.0990 N.pl3     1 NDP1510     0.0000 
     37 C2N        50.6950   49.1340   20.7060 C.2       1 NDP1510     0.0000 
     38 C3N        49.8260   48.1840   20.1620 C.2       1 NDP1510     0.0000 
     39 C7N        49.6600   48.0210   18.6590 C.2       1 NDP1510     0.0000 
     40 O7N        50.2790   48.7620   17.8650 O.2       1 NDP1510     0.0000 
     41 N7N        48.8280   47.0650   18.2400 N.am      1 NDP1510     0.0000 
     42 C4N        49.0750   47.3470   21.0730 C.3       1 NDP1510     0.0000 
     43 C5N        49.2200   47.4960   22.4960 C.2       1 NDP1510     0.0000 
     44 C6N        50.0990   48.4590   23.0140 C.2       1 NDP1510     0.0000 
     45 P2B        55.0640   57.9770   29.6500 P.3       1 NDP1510     0.0000 
     46 O1X        55.2070   57.2510   28.2570 O.co2     1 NDP1510     0.0000 
     47 O2X        55.9480   59.3480   29.5930 O.co2     1 NDP1510     0.0000 
     48 O3X        55.9420   57.0740   30.6390 O.co2     1 NDP1510     0.0000 
     49 H          50.1192   54.4294   30.6551 H         1 NDP1510     0.0000 
     50 H          50.3618   54.1638   28.9200 H         1 NDP1510     0.0000 
     51 H          49.9592   56.4159   29.5203 H         1 NDP1510     0.0000 
     52 H          52.5961   56.5532   28.2944 H         1 NDP1510     0.0000 
     53 H          53.3752   56.2831   30.4226 H         1 NDP1510     0.0000 
     54 H          51.3092   58.2204   31.3761 H         1 NDP1510     0.0000 
     55 H          53.3005   55.1889   32.3936 H         1 NDP1510     0.0000 
     56 H          54.2618   56.0390   36.9136 H         1 NDP1510     0.0000 
     57 H          53.8710   57.3698   38.0545 H         1 NDP1510     0.0000 
     58 H          51.5616   60.4495   35.6382 H         1 NDP1510     0.0000 
     59 H          53.7665   50.2210   26.1935 H         1 NDP1510     0.0000 
     60 H          53.6161   51.9801   26.0419 H         1 NDP1510     0.0000 
     61 H          51.3478   50.5194   25.0128 H         1 NDP1510     0.0000 
     62 H          51.4174   52.6126   24.7226 H         1 NDP1510     0.0000 
     63 H          50.1932   51.1828   23.5594 H         1 NDP1510     0.0000 
     64 H          52.3728   50.6039   21.6189 H         1 NDP1510     0.0000 
     65 H          51.2440   49.7426   20.0840 H         1 NDP1510     0.0000 
     66 H          48.7275   46.9723   17.2494 H         1 NDP1510     0.0000 
     67 H          48.3800   46.5274   18.9544 H         1 NDP1510     0.0000 
     68 H          49.2723   46.2468   20.7972 H         1 NDP1510     0.0000 
     69 H          47.9585   47.4358   20.8066 H         1 NDP1510     0.0000 
     70 H          48.6781   46.8954   23.1143 H         1 NDP1510     0.0000 
     71 H          50.2173   48.5815   24.0084 H         1 NDP1510     0.0000 
     72 H          51.6940   58.5239   27.8892 H         1 NDP1510     0.0000 
     73 H          52.4746   53.5260   22.6610 H         1 NDP1510     0.0000 
     74 H          49.8400   52.8908   22.3089 H         1 NDP1510     0.0000 
@<TRIPOS>BOND
     1    2    1 ar   
     2    3    1 ar   
     3    4    1 1    
     4   23    1 1    
     5    5    4 1    
     6    6    5 1    
     7   49    5 1    
     8   50    5 1    
     9    7    6 1    
    10    8    6 1    
    11   51    6 1    
    12   12    7 1    
    13    9    8 1    
    14   10    8 1    
    15   52    8 1    
    16   72    9 1    
    17   11   10 1    
    18   12   10 1    
    19   53   10 1    
    20   45   11 1    
    21   13   12 1    
    22   54   12 1    
    23   14   13 1    
    24   22   13 1    
    25   15   14 2    
    26   55   14 1    
    27   16   15 1    
    28   17   16 ar   
    29   22   16 ar   
    30   18   17 1    
    31   19   17 ar   
    32   56   18 1    
    33   57   18 1    
    34   20   19 ar   
    35   21   20 ar   
    36   58   20 1    
    37   22   21 ar   
    38   24   23 1    
    39   25   24 ar   
    40   26   24 ar   
    41   27   24 1    
    42   28   27 1    
    43   29   28 1    
    44   59   28 1    
    45   60   28 1    
    46   30   29 1    
    47   31   29 1    
    48   61   29 1    
    49   35   30 1    
    50   32   31 1    
    51   33   31 1    
    52   62   31 1    
    53   73   32 1    
    54   34   33 1    
    55   35   33 1    
    56   63   33 1    
    57   74   34 1    
    58   36   35 1    
    59   64   35 1    
    60   37   36 1    
    61   44   36 1    
    62   38   37 2    
    63   65   37 1    
    64   39   38 1    
    65   42   38 1    
    66   40   39 2    
    67   41   39 am   
    68   66   41 1    
    69   67   41 1    
    70   43   42 1    
    71   68   42 1    
    72   69   42 1    
    73   44   43 2    
    74   70   43 1    
    75   71   44 1    
    76   46   45 ar   
    77   47   45 ar   
    78   48   45 ar   
@<TRIPOS>SUBSTRUCTURE
     1 NDP1510     1 GROUP   
@<TRIPOS>SET

