#    Name: 3lq5_SLQ_1_INTS_M
#    Modification time : Mon Mar 24 22:06:24 2014

@<TRIPOS>MOLECULE
3lq5_SLQ_1_INTS_M
   58     0     9     0     0
SMALL
NO_CHARGES


@<TRIPOS>ATOM
      1 CA         54.2445  -15.8900  -10.3905 C.3       3 GLC5        0.0000 
      2 CA         53.9860  -17.4670  -11.4850 C.3       9 GLL5        0.0000 
      3 CA         54.5030  -14.3130   -9.2960 C.3       6 GLP5        0.0000 
      4 CA         54.1135  -14.2220  -14.2675 C.3       3 GLC5        0.0000 
      5 CA         54.1220  -15.2610  -12.2740 C.3       9 GLL5        0.0000 
      6 CA         54.1050  -13.1830  -16.2610 C.3       6 GLP5        0.0000 
      7 CA         56.4495  -13.7375  -11.0145 C.3       3 GLC5        0.0000 
      8 CA         55.4730  -15.3040  -12.1610 C.3       9 GLL5        0.0000 
      9 CA         57.4260  -12.1710   -9.8680 C.3       6 GLP5        0.0000 
     10 O          58.3545  -15.2530  -11.5300 O.2       1 ALC1        0.0000 
     11 O          57.4890  -16.5040  -11.4960 O.2       7 ALL1        0.0000 
     12 O          59.2200  -14.0020  -11.5640 O.2       4 ALP1        0.0000 
     13 N          56.8425  -12.8485  -12.4045 N.am      2 SEC2        0.0000 
     14 N          55.9610  -14.1320  -12.5600 N.am      8 SEL2        0.0000 
     15 N          57.7240  -11.5650  -12.2490 N.am      5 SEP2        0.0000 
     16 CA         51.9470  -11.8520  -13.7745 C.3       3 GLC5        0.0000 
     17 CA         52.4200  -13.6060  -12.9800 C.3       9 GLL5        0.0000 
     18 CA         51.4740  -10.0980  -14.5690 C.3       6 GLP5        0.0000 
     19 CA         52.0035  -15.9330  -15.3545 C.3       3 GLC5        0.0000 
     20 CA         51.6790  -14.3280  -14.1040 C.3       9 GLL5        0.0000 
     21 CA         52.3280  -17.5380  -16.6050 C.3       6 GLP5        0.0000 
     22 CA         50.6945  -13.0065  -14.6865 C.3       3 GLC5        0.0000 
     23 CA         49.7100  -11.6850  -15.2690 C.3       6 GLP5        0.0000 
     24 CA         50.8610  -12.0755  -13.0645 C.3       3 GLC5        0.0000 
     25 CA         51.5930  -13.4670  -11.7050 C.3       9 GLL5        0.0000 
     26 CA         50.1290  -10.6840  -14.4240 C.3       6 GLP5        0.0000 
     27 CA         51.0800  -14.1295   -9.8420 C.3       3 GLC5        0.0000 
     28 CA         50.5670  -14.7920   -7.9790 C.3       6 GLP5        0.0000 
     29 CA         50.6780  -16.6155   -9.2680 C.3       3 GLC5        0.0000 
     30 CA         50.7890  -18.4390  -10.5570 C.3       9 GLL5        0.0000 
     31 CA         60.2345  -19.3035  -17.2560 C.3       3 GLC5        0.0000 
     32 CA         62.3990  -19.4980  -17.3760 C.3       9 GLL5        0.0000 
     33 CA         58.0700  -19.1090  -17.1360 C.3       6 GLP5        0.0000 
     34 CA         59.9940  -16.5175   -9.6070 C.3       3 GLC5        0.0000 
     35 CA         58.7250  -17.0630  -11.0090 C.3       9 GLL5        0.0000 
     36 CA         61.2630  -15.9720   -8.2050 C.3       6 GLP5        0.0000 
     37 CA         58.0580  -17.7555   -9.1185 C.3       3 GLC5        0.0000 
     38 CA         57.3910  -18.4480   -7.2280 C.3       6 GLP5        0.0000 
     39 CA         56.0525  -16.6422  -13.8137 C.3       3 GLC5        0.0000 
     40 CA         56.3350  -17.4120  -15.6970 C.3       6 GLP5        0.0000 
     41 CA         54.9676  -15.0874  -10.6274 C.3       3 GLC5        0.0000 
     42 CA         56.0670  -16.4410  -11.7000 C.3       9 GLL5        0.0000 
     43 CA         53.0772  -13.5750  -14.9015 C.3       3 GLC5        0.0000 
     44 CA         51.8148  -12.3483  -10.8983 C.3       3 GLC5        0.0000 
     45 CA         51.6230  -11.1600   -9.4540 C.3       6 GLP5        0.0000 
     46 CA         53.2548  -13.9247  -10.8193 C.3       3 GLC5        0.0000 
     47 CA         48.5530  -18.3758   -9.4973 C.3       3 GLC5        0.0000 
     48 CA         46.9720  -17.9750   -8.6380 C.3       6 GLP5        0.0000 
     49 CA         59.3478  -18.7805  -15.6628 C.3       3 GLC5        0.0000 
     50 CA         60.5150  -19.1370  -14.2840 C.3       9 GLL5        0.0000 
     51 CA         59.6677  -20.0765  -16.6329 C.3       3 GLC5        0.0000 
     52 CA         61.1020  -19.7340  -15.3930 C.3       9 GLL5        0.0000 
     53 CA         61.5600  -19.8250  -19.2908 C.3       3 GLC5        0.0000 
     54 CA         62.2370  -20.8740  -17.6090 C.3       9 GLL5        0.0000 
     55 CA         60.8020  -19.4640  -21.0890 C.3       6 GLP5        0.0000 
     56 CA         58.2413  -19.6505  -14.5165 C.3       3 GLC5        0.0000 
     57 CA         59.7060  -19.8630  -13.3830 C.3       9 GLL5        0.0000 
     58 CA         57.0670  -19.7660  -16.1970 C.3       6 GLP5        0.0000 
@<TRIPOS>BOND
@<TRIPOS>SUBSTRUCTURE
     1 ALC1       10 GROUP        1 X    ALC  0     ROOT ALC X 1
     2 SEC2       13 GROUP        1 X    SEC  0     **** SEC X 2
     3 GLC5        1 GROUP        1 X    GLC  0     **** GLC X 6
     4 ALP1       12 GROUP        1 Y    ALP  0     ROOT ALP Y 8
     5 SEP2       15 GROUP        1 Y    SEP  0     **** SEP Y 9
     6 GLP5        3 GROUP        1 Y    GLP  0     **** GLP Y 13
     7 ALL1       11 GROUP        1 Z    ALL  0     ROOT ALL Z 15
     8 SEL2       14 GROUP        1 Z    SEL  0     **** SEL Z 16
     9 GLL5        2 GROUP        1 Z    GLL  0     **** GLL Z 20
@<TRIPOS>SET

