#    Name: 3lq5_SLQ_1_ligand
#    Modification time : Mon Mar 24 22:06:24 2014

@<TRIPOS>MOLECULE
3lq5_SLQ_1_ligand
   61    64     1     0     0
SMALL
NO_CHARGES


@<TRIPOS>ATOM
      1 N1         55.3360  -17.5040  -11.3650 N.ar      1 SLQ331      0.0000 
      2 O1         52.5640  -20.6300  -12.4950 O.3       1 SLQ331      0.0000 
      3 C2         53.9860  -17.4670  -11.4850 C.ar      1 SLQ331      0.0000 
      4 N2         53.1850  -18.5830  -11.0300 N.pl3     1 SLQ331      0.0000 
      5 N3         53.3860  -16.3350  -11.9370 N.ar      1 SLQ331      0.0000 
      6 C4         54.1220  -15.2610  -12.2740 C.ar      1 SLQ331      0.0000 
      7 C5         55.4730  -15.3040  -12.1610 C.ar      1 SLQ331      0.0000 
      8 C6         56.0670  -16.4410  -11.7000 C.ar      1 SLQ331      0.0000 
      9 N6         57.4890  -16.5040  -11.4960 N.pl3     1 SLQ331      0.0000 
     10 N7         55.9610  -14.1320  -12.5600 N.2       1 SLQ331      0.0000 
     11 C8         54.9160  -13.3570  -12.9260 C.2       1 SLQ331      0.0000 
     12 C9         52.4200  -13.6060  -12.9800 C.3       1 SLQ331      0.0000 
     13 N9         53.7810  -14.0610  -12.7440 N.pl3     1 SLQ331      0.0000 
     14 C1'        59.3820  -17.8390  -12.1210 C.ar      1 SLQ331      0.0000 
     15 C10        51.6790  -14.3280  -14.1040 C.3       1 SLQ331      0.0000 
     16 C11        51.5930  -13.4670  -11.7050 C.3       1 SLQ331      0.0000 
     17 C12        52.0570  -19.2990  -10.4650 C.3       1 SLQ331      0.0000 
     18 C13        50.7890  -18.4390  -10.5570 C.3       1 SLQ331      0.0000 
     19 C14        49.4790  -19.1140  -10.1560 C.3       1 SLQ331      0.0000 
     20 C15        51.8790  -20.5580  -11.2750 C.3       1 SLQ331      0.0000 
     21 C1B        61.1020  -19.7340  -15.3930 C.ar      1 SLQ331      0.0000 
     22 N1B        61.8240  -18.9440  -16.2670 N.ar      1 SLQ331      0.0000 
     23 C2'        60.1650  -17.1100  -13.0120 C.ar      1 SLQ331      0.0000 
     24 C2B        60.9340  -21.1080  -15.6340 C.ar      1 SLQ331      0.0000 
     25 C3'        60.7360  -17.7670  -14.0950 C.ar      1 SLQ331      0.0000 
     26 C3B        61.5130  -21.6670  -16.7460 C.ar      1 SLQ331      0.0000 
     27 C4'        60.5150  -19.1370  -14.2840 C.ar      1 SLQ331      0.0000 
     28 C4B        62.2370  -20.8740  -17.6090 C.ar      1 SLQ331      0.0000 
     29 C5'        59.7060  -19.8630  -13.3830 C.ar      1 SLQ331      0.0000 
     30 C5B        62.3990  -19.4980  -17.3760 C.ar      1 SLQ331      0.0000 
     31 C6'        59.1250  -19.2070  -12.2890 C.ar      1 SLQ331      0.0000 
     32 CA'        58.7250  -17.0630  -11.0090 C.3       1 SLQ331      0.0000 
     33 H          53.9929  -19.5856  -11.3005 H         1 SLQ331      0.0000 
     34 H          57.8968  -15.4391  -12.1026 H         1 SLQ331      0.0000 
     35 H          54.9746  -12.4535  -13.2605 H         1 SLQ331      0.0000 
     36 H          52.5128  -12.5097  -13.3658 H         1 SLQ331      0.0000 
     37 H          52.2329  -19.5562   -9.4484 H         1 SLQ331      0.0000 
     38 H          50.6930  -18.0640  -11.6003 H         1 SLQ331      0.0000 
     39 H          50.9317  -17.5331   -9.9267 H         1 SLQ331      0.0000 
     40 H          52.1559  -21.4249  -10.6010 H         1 SLQ331      0.0000 
     41 H          50.7653  -20.6984  -11.4247 H         1 SLQ331      0.0000 
     42 H          60.3161  -16.1111  -12.8711 H         1 SLQ331      0.0000 
     43 H          60.3848  -21.6716  -14.9806 H         1 SLQ331      0.0000 
     44 H          61.3232  -17.2503  -14.7623 H         1 SLQ331      0.0000 
     45 H          61.4079  -22.6748  -16.9363 H         1 SLQ331      0.0000 
     46 H          62.6764  -21.2903  -18.4519 H         1 SLQ331      0.0000 
     47 H          59.5478  -20.8602  -13.5314 H         1 SLQ331      0.0000 
     48 H          62.9412  -18.9358  -18.0356 H         1 SLQ331      0.0000 
     49 H          58.5347  -19.7082  -11.6366 H         1 SLQ331      0.0000 
     50 H          58.5491  -17.7400  -10.1689 H         1 SLQ331      0.0000 
     51 H          59.4113  -16.2785  -10.6794 H         1 SLQ331      0.0000 
     52 H          52.1448  -14.2239  -14.9827 H         1 SLQ331      0.0000 
     53 H          51.6019  -15.3093  -13.9276 H         1 SLQ331      0.0000 
     54 H          50.7499  -13.9774  -14.2215 H         1 SLQ331      0.0000 
     55 H          51.5161  -14.3357  -11.2157 H         1 SLQ331      0.0000 
     56 H          51.9967  -12.8079  -11.0705 H         1 SLQ331      0.0000 
     57 H          50.6624  -13.1559  -11.8980 H         1 SLQ331      0.0000 
     58 H          49.2831  -19.9124  -10.7253 H         1 SLQ331      0.0000 
     59 H          49.4986  -19.4284   -9.2069 H         1 SLQ331      0.0000 
     60 H          48.6996  -18.4935  -10.2432 H         1 SLQ331      0.0000 
     61 H          53.2842  -20.5208  -11.8098 H         1 SLQ331      0.0000 
@<TRIPOS>BOND
     1    3    1 ar   
     2    8    1 ar   
     3   20    2 1    
     4   61    2 1    
     5    4    3 1    
     6    5    3 ar   
     7   17    4 1    
     8   33    4 1    
     9    6    5 ar   
    10    7    6 ar   
    11   13    6 1    
    12    8    7 ar   
    13   10    7 1    
    14    9    8 1    
    15   32    9 1    
    16   34    9 1    
    17   11   10 2    
    18   13   11 1    
    19   35   11 1    
    20   13   12 1    
    21   15   12 1    
    22   16   12 1    
    23   36   12 1    
    24   23   14 ar   
    25   31   14 ar   
    26   32   14 1    
    27   52   15 1    
    28   53   15 1    
    29   54   15 1    
    30   55   16 1    
    31   56   16 1    
    32   57   16 1    
    33   18   17 1    
    34   20   17 1    
    35   37   17 1    
    36   19   18 1    
    37   38   18 1    
    38   39   18 1    
    39   58   19 1    
    40   59   19 1    
    41   60   19 1    
    42   40   20 1    
    43   41   20 1    
    44   22   21 ar   
    45   24   21 ar   
    46   27   21 1    
    47   30   22 ar   
    48   25   23 ar   
    49   42   23 1    
    50   26   24 ar   
    51   43   24 1    
    52   27   25 ar   
    53   44   25 1    
    54   28   26 ar   
    55   45   26 1    
    56   29   27 ar   
    57   30   28 ar   
    58   46   28 1    
    59   31   29 ar   
    60   47   29 1    
    61   48   30 1    
    62   49   31 1    
    63   50   32 1    
    64   51   32 1    
@<TRIPOS>SUBSTRUCTURE
     1 SLQ331      1 GROUP   
@<TRIPOS>SET

