#    Name: 3krr_DQX_1_INTS_M
#    Modification time : Mon Mar 24 20:22:17 2014

@<TRIPOS>MOLECULE
3krr_DQX_1_INTS_M
   78     0     6     0     0
SMALL
NO_CHARGES


@<TRIPOS>ATOM
      1 CA         14.9255   11.9130    6.9080 C.3       2 GLC5        0.0000 
      2 CA         15.6240   13.8380    6.2080 C.3       6 GLL5        0.0000 
      3 CA         14.2270    9.9880    7.6080 C.3       4 GLP5        0.0000 
      4 CA         13.5650   13.6560    6.4620 C.3       2 GLC5        0.0000 
      5 CA         11.5060   13.4740    6.7160 C.3       4 GLP5        0.0000 
      6 CA         13.2965   14.4165    5.4995 C.3       2 GLC5        0.0000 
      7 CA         15.2240   13.9820    4.9430 C.3       6 GLL5        0.0000 
      8 CA         11.3690   14.8510    6.0560 C.3       4 GLP5        0.0000 
      9 CA         14.3015   11.4935    6.0130 C.3       2 GLC5        0.0000 
     10 CA         14.3760   12.9990    4.4180 C.3       6 GLL5        0.0000 
     11 CA         12.9410   13.2365    5.5670 C.3       2 GLC5        0.0000 
     12 CA         12.9135    9.6995    4.3665 C.3       2 GLC5        0.0000 
     13 CA         13.2670   10.7450    2.4630 C.3       6 GLL5        0.0000 
     14 CA         12.5600    8.6540    6.2700 C.3       4 GLP5        0.0000 
     15 CA         14.6540   10.9815    1.3400 C.3       2 GLC5        0.0000 
     16 CA         16.0410   11.2180    0.2170 C.3       4 GLP5        0.0000 
     17 CA         15.2980   10.0480    1.6780 C.3       2 GLC5        0.0000 
     18 CA         14.5550    8.8780    3.1390 C.3       6 GLL5        0.0000 
     19 CA         11.8545    6.9620    1.7135 C.3       2 GLC5        0.0000 
     20 CA         13.6670    8.0440    2.4520 C.3       6 GLL5        0.0000 
     21 CA         10.0420    5.8800    0.9750 C.3       4 GLP5        0.0000 
     22 CA         13.5115    6.9185    0.7555 C.3       2 GLC5        0.0000 
     23 CA         13.3560    5.7930   -0.9410 C.3       4 GLP5        0.0000 
     24 N          12.4175    7.3435    0.8535 N.am      1 SEC2        0.0000 
     25 N          12.6140    8.5490    1.7810 N.am      5 SEL2        0.0000 
     26 N          12.2210    6.1380   -0.0740 N.am      3 SEP2        0.0000 
     27 CA         18.8125    4.6270    2.2690 C.3       2 GLC5        0.0000 
     28 CA         18.5790    5.0000    4.4120 C.3       6 GLL5        0.0000 
     29 CA         19.0460    4.2540    0.1260 C.3       4 GLP5        0.0000 
     30 CA         16.7785   16.6950    0.8515 C.3       2 GLC5        0.0000 
     31 CA         15.5210   16.2170    2.0500 C.3       6 GLL5        0.0000 
     32 CA         18.0360   17.1730   -0.3470 C.3       4 GLP5        0.0000 
     33 CA         15.5180   15.3600    7.9845 C.3       2 GLC5        0.0000 
     34 CA         14.9950   16.8690    6.6390 C.3       6 GLL5        0.0000 
     35 CA         16.0410   13.8510    9.3300 C.3       4 GLP5        0.0000 
     36 CA         14.9560   19.3500    8.4375 C.3       2 GLC5        0.0000 
     37 CA         14.1470   18.0090    7.2630 C.3       6 GLL5        0.0000 
     38 CA         15.7650   20.6910    9.6120 C.3       4 GLP5        0.0000 
     39 CA         14.0270   21.2885    5.8755 C.3       2 GLC5        0.0000 
     40 CA         14.0570   19.1950    5.2000 C.3       6 GLL5        0.0000 
     41 CA         13.9970   23.3820    6.5510 C.3       4 GLP5        0.0000 
     42 CA         11.8240   19.1810    5.1225 C.3       2 GLC5        0.0000 
     43 CA          9.5910   19.1670    5.0450 C.3       4 GLP5        0.0000 
     44 CA         14.1225   18.2465    2.5200 C.3       2 GLC5        0.0000 
     45 CA         14.8380   18.0840    4.4450 C.3       6 GLL5        0.0000 
     46 CA         13.4070   18.4090    0.5950 C.3       4 GLP5        0.0000 
     47 CA         15.7325   13.8805    7.4527 C.3       2 GLC5        0.0000 
     48 CA         14.3745   17.0575    1.5200 C.3       2 GLC5        0.0000 
     49 CA         15.1630   15.1950    2.8400 C.3       6 GLL5        0.0000 
     50 CA         15.0770   12.4428    1.4647 C.3       2 GLC5        0.0000 
     51 CA         14.3130   14.2140    2.3220 C.3       6 GLL5        0.0000 
     52 CA         10.9518    9.8483    2.7460 C.3       2 GLC5        0.0000 
     53 CA          9.0760    9.3830    3.3720 C.3       4 GLP5        0.0000 
     54 CA         13.3355    8.5575    4.5328 C.3       2 GLC5        0.0000 
     55 CA         10.1173   10.2278    2.2188 C.3       2 GLC5        0.0000 
     56 CA         11.2770   10.3830    1.0780 C.3       6 GLL5        0.0000 
     57 CA         10.6203   11.1988   -0.8267 C.3       2 GLC5        0.0000 
     58 CA         10.0820   11.3250   -2.7190 C.3       4 GLP5        0.0000 
     59 CA          9.8095   12.9495    1.8068 C.3       2 GLC5        0.0000 
     60 CA         11.0400   11.7620    1.0530 C.3       6 GLL5        0.0000 
     61 CA          8.1480   13.7010    2.2170 C.3       4 GLP5        0.0000 
     62 CA         11.7561   12.2674    4.0128 C.3       2 GLC5        0.0000 
     63 CA         11.9020   12.6340    1.7400 C.3       6 GLL5        0.0000 
     64 CA         10.8780   12.3750    5.8470 C.3       4 GLP5        0.0000 
     65 CA         15.2015    7.5782    5.7382 C.3       2 GLC5        0.0000 
     66 CA         15.7410    8.3270    3.9100 C.3       6 GLL5        0.0000 
     67 CA         14.4730    7.4720    7.4430 C.3       4 GLP5        0.0000 
     68 CA         17.0872    7.7696    2.7749 C.3       2 GLC5        0.0000 
     69 CA         16.1190    7.0420    4.1570 C.3       6 GLL5        0.0000 
     70 CA         18.5410    7.7170    1.7090 C.3       4 GLP5        0.0000 
     71 CA         16.0745    6.5930    6.7442 C.3       2 GLC5        0.0000 
     72 CA         18.0400    6.0360    5.4360 C.3       6 GLL5        0.0000 
     73 CA         18.4253    6.6175    3.3165 C.3       2 GLC5        0.0000 
     74 CA         14.9330   17.3080    8.9770 C.3       2 GLC5        0.0000 
     75 CA         15.2950   17.1770   11.0030 C.3       4 GLP5        0.0000 
     76 CA         12.9700   16.1450    6.5035 C.3       2 GLC5        0.0000 
     77 CA         12.8531   11.3607    0.1907 C.3       2 GLC5        0.0000 
     78 CA         13.9150   11.6190   -1.1180 C.3       4 GLP5        0.0000 
@<TRIPOS>BOND
@<TRIPOS>SUBSTRUCTURE
     1 SEC2       24 GROUP        1 X    SEC  0     ROOT SEC X 2
     2 GLC5        1 GROUP        1 X    GLC  0     **** GLC X 6
     3 SEP2       26 GROUP        1 Y    SEP  0     ROOT SEP Y 9
     4 GLP5        3 GROUP        1 Y    GLP  0     **** GLP Y 13
     5 SEL2       25 GROUP        1 Z    SEL  0     ROOT SEL Z 16
     6 GLL5        2 GROUP        1 Z    GLL  0     **** GLL Z 20
@<TRIPOS>SET

