#    Name: 3krr_DQX_1_ligand
#    Modification time : Mon Mar 24 20:22:17 2014

@<TRIPOS>MOLECULE
3krr_DQX_1_ligand
   64    69     1     0     0
SMALL
NO_CHARGES


@<TRIPOS>ATOM
      1 F1         15.6240   13.8380    6.2080 F         1 DQX1        0.0000 
      2 C2         15.2240   13.9820    4.9430 C.ar      1 DQX1        0.0000 
      3 C3         15.6170   15.0900    4.1660 C.ar      1 DQX1        0.0000 
      4 C4         15.1630   15.1950    2.8400 C.ar      1 DQX1        0.0000 
      5 C5         14.3130   14.2140    2.3220 C.ar      1 DQX1        0.0000 
      6 C7         13.9130   13.1210    3.1030 C.ar      1 DQX1        0.0000 
      7 C8         14.3760   12.9990    4.4180 C.ar      1 DQX1        0.0000 
      8 C10        13.0180   12.1310    2.4400 C.ar      1 DQX1        0.0000 
      9 C11        13.2670   10.7450    2.4630 C.ar      1 DQX1        0.0000 
     10 N12        14.3420   10.2190    3.1290 N.ar      1 DQX1        0.0000 
     11 C13        14.5550    8.8780    3.1390 C.ar      1 DQX1        0.0000 
     12 C14        13.6670    8.0440    2.4520 C.ar      1 DQX1        0.0000 
     13 N16        12.6140    8.5490    1.7810 N.ar      1 DQX1        0.0000 
     14 C17        12.3880    9.8820    1.7770 C.ar      1 DQX1        0.0000 
     15 C18        11.2770   10.3830    1.0780 C.ar      1 DQX1        0.0000 
     16 C20        11.0400   11.7620    1.0530 C.ar      1 DQX1        0.0000 
     17 C22        11.9020   12.6340    1.7400 C.ar      1 DQX1        0.0000 
     18 C24        15.7410    8.3270    3.9100 C.2       1 DQX1        0.0000 
     19 C25        16.1190    7.0420    4.1570 C.2       1 DQX1        0.0000 
     20 N27        17.2160    7.0980    4.8710 N.pl3     1 DQX1        0.0000 
     21 N28        17.5490    8.3880    5.1070 N.2       1 DQX1        0.0000 
     22 C29        16.7230    9.1880    4.5690 C.2       1 DQX1        0.0000 
     23 C31        18.0400    6.0360    5.4360 C.3       1 DQX1        0.0000 
     24 C33        17.3120    5.3920    6.6550 C.3       1 DQX1        0.0000 
     25 C36        18.1470    4.2500    7.2880 C.3       1 DQX1        0.0000 
     26 N39        18.5180    3.2990    6.2190 N.4       1 DQX1        0.0000 
     27 C41        19.3800    3.8830    5.1530 C.3       1 DQX1        0.0000 
     28 C44        18.5790    5.0000    4.4120 C.3       1 DQX1        0.0000 
     29 F47        15.5210   16.2170    2.0500 F         1 DQX1        0.0000 
     30 C48        16.5270   16.1840    4.7540 C.3       1 DQX1        0.0000 
     31 N51        15.6890   17.2740    5.3750 N.4       1 DQX1        0.0000 
     32 C52        14.9950   16.8690    6.6390 C.3       1 DQX1        0.0000 
     33 C55        14.1470   18.0090    7.2630 C.3       1 DQX1        0.0000 
     34 O58        13.2910   18.5970    6.2630 O.3       1 DQX1        0.0000 
     35 C59        14.0570   19.1950    5.2000 C.3       1 DQX1        0.0000 
     36 C62        14.8380   18.0840    4.4450 C.3       1 DQX1        0.0000 
     37 H          13.9739   14.2939    1.3505 H         1 DQX1        0.0000 
     38 H          14.0981   12.2001    4.9901 H         1 DQX1        0.0000 
     39 H          13.8427    7.0166    2.4733 H         1 DQX1        0.0000 
     40 H          10.6472    9.7422    0.5915 H         1 DQX1        0.0000 
     41 H          10.2405   12.1378    0.5357 H         1 DQX1        0.0000 
     42 H          11.7198   13.6434    1.7334 H         1 DQX1        0.0000 
     43 H          15.6478    6.2615    3.8509 H         1 DQX1        0.0000 
     44 H          16.6521   10.1260    4.5321 H         1 DQX1        0.0000 
     45 H          18.9605    6.5270    5.8891 H         1 DQX1        0.0000 
     46 H          16.3573    4.9927    6.3214 H         1 DQX1        0.0000 
     47 H          17.1351    6.1610    7.4031 H         1 DQX1        0.0000 
     48 H          17.5413    3.7684    8.0437 H         1 DQX1        0.0000 
     49 H          19.0263    4.6869    7.7420 H         1 DQX1        0.0000 
     50 H          19.6570    3.1318    4.4262 H         1 DQX1        0.0000 
     51 H          20.2669    4.3329    5.5775 H         1 DQX1        0.0000 
     52 H          19.2350    5.4970    3.7145 H         1 DQX1        0.0000 
     53 H          17.7487    4.5487    3.8916 H         1 DQX1        0.0000 
     54 H          17.1390   16.5950    3.9563 H         1 DQX1        0.0000 
     55 H          17.1703   15.7361    5.5060 H         1 DQX1        0.0000 
     56 H          16.5006   18.0558    5.7582 H         1 DQX1        0.0000 
     57 H          15.7325   16.5459    7.3883 H         1 DQX1        0.0000 
     58 H          14.3277   16.0160    6.4472 H         1 DQX1        0.0000 
     59 H          14.8430   18.7411    7.6829 H         1 DQX1        0.0000 
     60 H          13.5713   17.5747    8.0856 H         1 DQX1        0.0000 
     61 H          14.7893   19.9087    5.5771 H         1 DQX1        0.0000 
     62 H          13.4204   19.6975    4.4719 H         1 DQX1        0.0000 
     63 H          14.1114   17.4419    3.9400 H         1 DQX1        0.0000 
     64 H          15.4591   18.5635    3.6837 H         1 DQX1        0.0000 
@<TRIPOS>BOND
     1    2    1 1    
     2    3    2 ar   
     3    7    2 ar   
     4    4    3 ar   
     5   30    3 1    
     6    5    4 ar   
     7   29    4 1    
     8    6    5 ar   
     9   37    5 1    
    10    7    6 ar   
    11    8    6 1    
    12   38    7 1    
    13    9    8 ar   
    14   17    8 ar   
    15   10    9 ar   
    16   14    9 ar   
    17   11   10 ar   
    18   12   11 ar   
    19   18   11 1    
    20   13   12 ar   
    21   39   12 1    
    22   14   13 ar   
    23   15   14 ar   
    24   16   15 ar   
    25   40   15 1    
    26   17   16 ar   
    27   41   16 1    
    28   42   17 1    
    29   19   18 2    
    30   22   18 1    
    31   20   19 1    
    32   43   19 1    
    33   21   20 1    
    34   23   20 1    
    35   22   21 2    
    36   44   22 1    
    37   24   23 1    
    38   28   23 1    
    39   45   23 1    
    40   25   24 1    
    41   46   24 1    
    42   47   24 1    
    43   26   25 1    
    44   48   25 1    
    45   49   25 1    
    46   27   26 1    
    47   28   27 1    
    48   50   27 1    
    49   51   27 1    
    50   52   28 1    
    51   53   28 1    
    52   31   30 1    
    53   54   30 1    
    54   55   30 1    
    55   32   31 1    
    56   36   31 1    
    57   56   31 1    
    58   33   32 1    
    59   57   32 1    
    60   58   32 1    
    61   34   33 1    
    62   59   33 1    
    63   60   33 1    
    64   35   34 1    
    65   36   35 1    
    66   61   35 1    
    67   62   35 1    
    68   63   36 1    
    69   64   36 1    
@<TRIPOS>SUBSTRUCTURE
     1 DQX1        1 GROUP   
@<TRIPOS>SET

