#    Name: 4fk6_0UJ_2_INTS_M
#    Modification time : Mon Mar 24 20:12:17 2014

@<TRIPOS>MOLECULE
4fk6_0UJ_2_INTS_M
   61     0     9     0     0
SMALL
NO_CHARGES


@<TRIPOS>ATOM
      1 CA         13.6245    5.8355   -0.9775 C.3       3 GLC5        0.0000 
      2 CA         11.8820    5.6270    0.3920 C.3       9 GLL5        0.0000 
      3 CA         15.3670    6.0440   -2.3470 C.3       6 GLP5        0.0000 
      4 CA         10.8120    5.1575    2.2835 C.3       3 GLC5        0.0000 
      5 CA          9.7420    4.6880    4.1750 C.3       6 GLP5        0.0000 
      6 CA         17.4880    7.3220    0.2500 C.3       3 GLC5        0.0000 
      7 CA         16.1000    6.6960    1.3420 C.3       9 GLL5        0.0000 
      8 CA         18.8760    7.9480   -0.8420 C.3       6 GLP5        0.0000 
      9 CA         16.3365    4.8515    5.3230 C.3       3 GLC5        0.0000 
     10 CA         15.6400    6.1530    3.6850 C.3       9 GLL5        0.0000 
     11 CA         17.0330    3.5500    6.9610 C.3       6 GLP5        0.0000 
     12 CA         17.9650    7.8670    1.6130 C.3       3 GLC5        0.0000 
     13 CA         16.4920    7.1360    2.8030 C.3       9 GLL5        0.0000 
     14 CA         19.4380    8.5980    0.4230 C.3       6 GLP5        0.0000 
     15 CA          8.0910    6.1735   -1.0000 C.3       3 GLC5        0.0000 
     16 CA          9.7840    7.3190   -1.6330 C.3       9 GLL5        0.0000 
     17 CA          6.3980    5.0280   -0.3670 C.3       6 GLP5        0.0000 
     18 CA         18.3130    5.0825    0.5130 C.3       3 GLC5        0.0000 
     19 CA         17.4740    3.7240    1.8640 C.3       9 GLL5        0.0000 
     20 CA         19.1520    6.4410   -0.8380 C.3       6 GLP5        0.0000 
     21 CA         18.7300    1.2565    3.4690 C.3       3 GLC5        0.0000 
     22 CA         18.3770    2.7290    1.9860 C.3       9 GLL5        0.0000 
     23 CA         19.0830   -0.2160    4.9520 C.3       6 GLP5        0.0000 
     24 CA         20.2000    3.1735    2.6530 C.3       3 GLC5        0.0000 
     25 CA         22.0230    3.6180    3.3200 C.3       6 GLP5        0.0000 
     26 O          18.5685    0.3480    1.2800 O.2       1 ALC1        0.0000 
     27 O          17.8520    1.5660    1.4810 O.2       7 ALL1        0.0000 
     28 O          19.2850   -0.8700    1.0790 O.2       4 ALP1        0.0000 
     29 CA         17.1025    0.0055    0.0185 C.3       3 GLC5        0.0000 
     30 CA         16.5620    1.7960    1.0390 C.3       9 GLL5        0.0000 
     31 CA         17.6430   -1.7850   -1.0020 C.3       6 GLP5        0.0000 
     32 N          15.5445   -0.4730    0.2715 N.am      2 SEC2        0.0000 
     33 N          15.6490    0.9800    0.5020 N.am      8 SEL2        0.0000 
     34 N          15.4400   -1.9260    0.0410 N.am      5 SEP2        0.0000 
     35 CA         15.5350    2.6400   -1.2340 C.3       3 GLC5        0.0000 
     36 CA         14.4380    1.3870    0.1850 C.3       9 GLL5        0.0000 
     37 CA         16.6320    3.8930   -2.6530 C.3       6 GLP5        0.0000 
     38 CA         14.3460   -0.6120    0.3765 C.3       3 GLC5        0.0000 
     39 CA         14.2540   -2.6110    0.5680 C.3       6 GLP5        0.0000 
     40 CA         14.1720    3.3775   -1.5385 C.3       3 GLC5        0.0000 
     41 CA         14.0460    2.7260    0.3880 C.3       9 GLL5        0.0000 
     42 CA         14.2980    4.0290   -3.4650 C.3       6 GLP5        0.0000 
     43 N          11.3490    4.9700   -3.9770 N.am      2 SEC2        0.0000 
     44 N          11.4060    5.4630   -2.5800 N.am      8 SEL2        0.0000 
     45 N          11.2920    4.4770   -5.3740 N.am      5 SEP2        0.0000 
     46 CA         15.3660    6.2522   -0.4680 C.3       3 GLC5        0.0000 
     47 CA         14.6300    6.2250    1.4800 C.3       9 GLL5        0.0000 
     48 CA         14.1133    4.5485    3.1946 C.3       3 GLC5        0.0000 
     49 CA         14.2660    6.4970    2.9880 C.3       9 GLL5        0.0000 
     50 CA         13.4350    2.8220    3.9810 C.3       6 GLP5        0.0000 
     51 CA         16.8912    7.7856    4.7652 C.3       3 GLC5        0.0000 
     52 CA         17.8780    8.0100    6.3570 C.3       6 GLP5        0.0000 
     53 CA         16.3581    3.2496   -0.7910 C.3       3 GLC5        0.0000 
     54 CA         16.2540    3.1660    1.2710 C.3       9 GLL5        0.0000 
     55 CA         18.3981    2.3738    0.1519 C.3       3 GLC5        0.0000 
     56 CA         19.7050    2.3060   -1.1040 C.3       6 GLP5        0.0000 
     57 CA         16.3151    1.9432    2.8824 C.3       3 GLC5        0.0000 
     58 CA         15.5390    1.4450    4.3570 C.3       6 GLP5        0.0000 
     59 CA         12.1405    1.6618    0.5497 C.3       3 GLC5        0.0000 
     60 CA         10.0390    1.2670    0.8130 C.3       6 GLP5        0.0000 
     61 CA         13.9526    2.5569    2.2021 C.3       3 GLC5        0.0000 
@<TRIPOS>BOND
@<TRIPOS>SUBSTRUCTURE
     1 ALC1       26 GROUP        1 X    ALC  0     ROOT ALC X 1
     2 SEC2       32 GROUP        1 X    SEC  0     **** SEC X 2
     3 GLC5        1 GROUP        1 X    GLC  0     **** GLC X 6
     4 ALP1       28 GROUP        1 Y    ALP  0     ROOT ALP Y 8
     5 SEP2       34 GROUP        1 Y    SEP  0     **** SEP Y 9
     6 GLP5        3 GROUP        1 Y    GLP  0     **** GLP Y 13
     7 ALL1       27 GROUP        1 Z    ALL  0     ROOT ALL Z 15
     8 SEL2       33 GROUP        1 Z    SEL  0     **** SEL Z 16
     9 GLL5        2 GROUP        1 Z    GLL  0     **** GLL Z 20
@<TRIPOS>SET

