#    Name: 4fk6_0UJ_2_ligand
#    Modification time : Mon Mar 24 20:12:17 2014

@<TRIPOS>MOLECULE
4fk6_0UJ_2_ligand
   46    50     1     0     0
SMALL
NO_CHARGES


@<TRIPOS>ATOM
      1 C4         11.8820    5.6270    0.3920 C.3       1 0UJ1201     0.0000 
      2 C14        16.1000    6.6960    1.3420 C.3       1 0UJ1201     0.0000 
      3 C5         12.9930    4.6140    0.5070 C.2       1 0UJ1201     0.0000 
      4 C11        15.6400    6.1530    3.6850 C.3       1 0UJ1201     0.0000 
      5 C7         14.6300    6.2250    1.4800 C.3       1 0UJ1201     0.0000 
      6 C9         14.2660    6.4970    2.9880 C.3       1 0UJ1201     0.0000 
      7 C12        16.4920    7.1360    2.8030 C.3       1 0UJ1201     0.0000 
      8 N3         10.6840    5.0770   -0.2430 N.pl3     1 0UJ1201     0.0000 
      9 C1          9.7840    7.3190   -1.6330 C.3       1 0UJ1201     0.0000 
     10 S2         10.2400    5.5690   -1.7710 S.o2      1 0UJ1201     0.0000 
     11 N6         14.2540    4.8740    0.9920 N.pl3     1 0UJ1201     0.0000 
     12 C15        14.2150    8.0520    3.1490 C.3       1 0UJ1201     0.0000 
     13 C16        15.7430    8.4780    3.1030 C.3       1 0UJ1201     0.0000 
     14 C17        14.9590    3.6670    0.9350 C.ar      1 0UJ1201     0.0000 
     15 C18        16.2540    3.1660    1.2710 C.ar      1 0UJ1201     0.0000 
     16 C19        17.4740    3.7240    1.8640 C.2       1 0UJ1201     0.0000 
     17 C20        18.3770    2.7290    1.9860 C.2       1 0UJ1201     0.0000 
     18 N21        17.8520    1.5660    1.4810 N.pl3     1 0UJ1201     0.0000 
     19 C23        16.5620    1.7960    1.0390 C.ar      1 0UJ1201     0.0000 
     20 N24        15.6490    0.9800    0.5020 N.ar      1 0UJ1201     0.0000 
     21 C25        14.4380    1.3870    0.1850 C.ar      1 0UJ1201     0.0000 
     22 C26        14.0460    2.7260    0.3880 C.ar      1 0UJ1201     0.0000 
     23 N27        12.8810    3.3730    0.1560 N.2       1 0UJ1201     0.0000 
     24 O28         9.1280    4.7160   -1.9910 O.2       1 0UJ1201     0.0000 
     25 O29        11.4060    5.4630   -2.5800 O.2       1 0UJ1201     0.0000 
     26 H          12.2563    6.4944   -0.1825 H         1 0UJ1201     0.0000 
     27 H          11.6418    6.0007    1.4045 H         1 0UJ1201     0.0000 
     28 H          16.1510    7.5343    0.7076 H         1 0UJ1201     0.0000 
     29 H          16.7106    5.8889    1.0530 H         1 0UJ1201     0.0000 
     30 H          15.8957    5.1915    3.4685 H         1 0UJ1201     0.0000 
     31 H          15.6220    6.4862    4.6470 H         1 0UJ1201     0.0000 
     32 H          14.0237    7.0066    0.9270 H         1 0UJ1201     0.0000 
     33 H          13.5351    6.0151    3.3254 H         1 0UJ1201     0.0000 
     34 H          17.4138    7.1268    3.0079 H         1 0UJ1201     0.0000 
     35 H          10.0866    4.4162    0.1585 H         1 0UJ1201     0.0000 
     36 H          13.8223    8.2989    4.0891 H         1 0UJ1201     0.0000 
     37 H          13.7195    8.4778    2.3292 H         1 0UJ1201     0.0000 
     38 H          15.8849    9.1482    2.3087 H         1 0UJ1201     0.0000 
     39 H          16.0240    8.8371    4.0476 H         1 0UJ1201     0.0000 
     40 H          17.5481    4.6349    2.0974 H         1 0UJ1201     0.0000 
     41 H          19.2633    2.8098    2.3693 H         1 0UJ1201     0.0000 
     42 H          18.3059    0.7193    1.4384 H         1 0UJ1201     0.0000 
     43 H          13.7270    0.7403   -0.2253 H         1 0UJ1201     0.0000 
     44 H          10.5462    7.8766   -1.3042 H         1 0UJ1201     0.0000 
     45 H           9.5008    7.6995   -2.5133 H         1 0UJ1201     0.0000 
     46 H           9.0248    7.4559   -0.9967 H         1 0UJ1201     0.0000 
@<TRIPOS>BOND
     1    3    1 1    
     2    8    1 1    
     3   26    1 1    
     4   27    1 1    
     5    5    2 1    
     6    7    2 1    
     7   28    2 1    
     8   29    2 1    
     9   11    3 1    
    10   23    3 2    
    11    6    4 1    
    12    7    4 1    
    13   30    4 1    
    14   31    4 1    
    15    6    5 1    
    16   11    5 1    
    17   32    5 1    
    18   12    6 1    
    19   33    6 1    
    20   13    7 1    
    21   34    7 1    
    22   10    8 1    
    23   35    8 1    
    24   10    9 1    
    25   44    9 1    
    26   45    9 1    
    27   46    9 1    
    28   24   10 2    
    29   25   10 2    
    30   14   11 1    
    31   13   12 1    
    32   36   12 1    
    33   37   12 1    
    34   38   13 1    
    35   39   13 1    
    36   15   14 ar   
    37   22   14 ar   
    38   16   15 1    
    39   19   15 ar   
    40   17   16 2    
    41   40   16 1    
    42   18   17 1    
    43   41   17 1    
    44   19   18 1    
    45   42   18 1    
    46   20   19 ar   
    47   21   20 ar   
    48   22   21 ar   
    49   43   21 1    
    50   23   22 1    
@<TRIPOS>SUBSTRUCTURE
     1 0UJ1201     1 GROUP   
@<TRIPOS>SET

