#    Name: 2EVC_1_CAVITY_N1_ALL.mol2
#    Modification time : Tue Mar 11 11:16:08 2014

@<TRIPOS>MOLECULE
2EVC_1_CAVITY_N1_ALL.mol2
   93     0     7     0     0
SMALL
NO_CHARGES


@<TRIPOS>ATOM
      1 CA         -8.7907   -3.5950    6.5674 C.3       6 GLY6        0.0000 
      2 CZ         -9.2533   -3.8794    7.9656 C.ar      5 PHE5        0.0000 
      3 CA         -7.4464   -2.1315    7.3099 C.3       6 GLY6        0.0000 
      4 CA         -6.9035   -3.3199    5.6386 C.3       6 GLY6        0.0000 
      5 CZ         -7.3661   -3.6043    7.0369 C.ar      5 PHE5        0.0000 
      6 DU         -7.2857   -5.0770    6.7638 H         7 CUB7        0.0000 
      7 CZ         -7.7483   -5.3615    8.1621 C.ar      5 PHE5        0.0000 
      8 CA         -6.6451    0.5202    9.7236 C.3       6 GLY6        0.0000 
      9 CZ         -6.1022   -0.6681    8.0523 C.ar      5 PHE5        0.0000 
     10 CZ         -6.5648   -0.9525    9.4506 C.ar      5 PHE5        0.0000 
     11 CZ         -5.5592   -1.8564    6.3811 C.ar      5 PHE5        0.0000 
     12 CZ         -6.0218   -2.1408    7.7793 C.ar      5 PHE5        0.0000 
     13 CZ         -6.4844   -2.4253    9.1776 C.ar      5 PHE5        0.0000 
     14 OG         -4.5536   -2.7603    3.3116 O.2       1 SER1        0.0000 
     15 CA         -5.0162   -3.0447    4.7098 C.3       6 GLY6        0.0000 
     16 CA         -5.4789   -3.3291    6.1081 C.3       6 GLY6        0.0000 
     17 DU         -5.9415   -3.6136    7.5063 H         7 CUB7        0.0000 
     18 CZ         -6.4041   -3.8980    8.9045 C.ar      5 PHE5        0.0000 
     19 DU         -5.3985   -4.8019    5.8350 H         7 CUB7        0.0000 
     20 DU         -5.8611   -5.0863    7.2333 H         7 CUB7        0.0000 
     21 O          -6.3237   -5.3708    8.6315 O.2       2 ALA2        0.0000 
     22 CA         -5.3009    1.9837   10.4660 C.3       6 GLY6        0.0000 
     23 CZ         -4.7579    0.7954    8.7948 C.ar      5 PHE5        0.0000 
     24 CZ         -5.2205    0.5109   10.1930 C.ar      5 PHE5        0.0000 
     25 CZ         -5.6831    0.2265   11.5913 C.ar      5 PHE5        0.0000 
     26 CZ         -4.2149   -0.3929    7.1235 C.ar      5 PHE5        0.0000 
     27 CZ         -4.6776   -0.6774    8.5218 C.ar      5 PHE5        0.0000 
     28 N          -5.1402   -0.9618    9.9200 N.2       2 ALA2        0.0000 
     29 CZ         -5.6028   -1.2462   11.3183 C.ar      5 PHE5        0.0000 
     30 CZ         -3.6720   -1.5812    5.4523 C.ar      5 PHE5        0.0000 
     31 CZ         -4.1346   -1.8657    6.8505 C.ar      5 PHE5        0.0000 
     32 N          -4.5972   -2.1501    8.2488 N.2       2 ALA2        0.0000 
     33 N          -5.0598   -2.4346    9.6470 N.2       2 ALA2        0.0000 
     34 CA         -3.1290   -2.7696    3.7810 C.3       6 GLY6        0.0000 
     35 N          -3.5916   -3.0540    5.1793 N.2       2 ALA2        0.0000 
     36 DU         -4.0542   -3.3384    6.5775 H         7 CUB7        0.0000 
     37 N          -4.5169   -3.6229    7.9758 N.2       2 ALA2        0.0000 
     38 DU         -3.0487   -4.2423    3.5080 H         7 CUB7        0.0000 
     39 DU         -3.5113   -4.5268    4.9063 H         7 CUB7        0.0000 
     40 DU         -3.9739   -4.8112    6.3045 H         7 CUB7        0.0000 
     41 N          -4.4365   -5.0956    7.7027 N.2       2 ALA2        0.0000 
     42 CZ         -4.3561   -6.5684    7.4297 C.ar      5 PHE5        0.0000 
     43 CZ         -3.4137    2.2588    9.5372 C.ar      5 PHE5        0.0000 
     44 CA         -3.8763    1.9744   10.9355 C.3       6 GLY6        0.0000 
     45 CZ         -3.3333    0.7861    9.2642 C.ar      5 PHE5        0.0000 
     46 CA         -3.7959    0.5017   10.6625 C.3       6 GLY6        0.0000 
     47 N          -2.7903   -0.4022    7.5930 N.2       2 ALA2        0.0000 
     48 N          -3.2529   -0.6867    8.9912 N.2       2 ALA2        0.0000 
     49 N          -3.7156   -0.9711   10.3895 N.2       2 ALA2        0.0000 
     50 CA         -4.1782   -1.2555   11.7877 C.3       6 GLY6        0.0000 
     51 N          -2.7100   -1.8750    7.3200 N.2       2 ALA2        0.0000 
     52 N          -3.1726   -2.1594    8.7182 N.2       2 ALA2        0.0000 
     53 N          -2.1670   -3.0633    5.6487 N.2       2 ALA2        0.0000 
     54 N          -2.6296   -3.3477    7.0470 N.2       2 ALA2        0.0000 
     55 CA         -1.6240   -4.2516    3.9775 C.3       6 GLY6        0.0000 
     56 DU         -2.0867   -4.5361    5.3757 H         7 CUB7        0.0000 
     57 CZ         -2.5493   -4.8205    6.7739 C.ar      5 PHE5        0.0000 
     58 DU         -1.5437   -5.7244    3.7045 H         7 CUB7        0.0000 
     59 CZ         -2.0063   -6.0088    5.1027 C.ar      5 PHE5        0.0000 
     60 CZ         -2.4689   -6.2933    6.5009 C.ar      5 PHE5        0.0000 
     61 CZ         -1.9890    2.2495   10.0067 C.ar      5 PHE5        0.0000 
     62 CZ         -1.9087    0.7768    9.7337 C.ar      5 PHE5        0.0000 
     63 CA         -2.3713    0.4924   11.1319 C.3       6 GLY6        0.0000 
     64 N          -1.3657   -0.4115    8.0624 N.2       2 ALA2        0.0000 
     65 N          -1.8283   -0.6960    9.4607 N.2       2 ALA2        0.0000 
     66 CA         -2.2909   -0.9804   10.8589 C.3       6 GLY6        0.0000 
     67 N          -1.2854   -1.8843    7.7894 N.2       2 ALA2        0.0000 
     68 N          -1.7480   -2.1687    9.1877 N.2       2 ALA2        0.0000 
     69 N          -0.7424   -3.0726    6.1182 N.2       2 ALA2        0.0000 
     70 N          -1.2050   -3.3570    7.5164 N.2       2 ALA2        0.0000 
     71 N          -0.1994   -4.2609    4.4469 N.2       2 ALA2        0.0000 
     72 N          -0.6620   -4.5454    5.8452 N.2       2 ALA2        0.0000 
     73 CZ         -1.1247   -4.8298    7.2434 C.ar      5 PHE5        0.0000 
     74 N          -1.5873   -5.1142    8.6416 N.2       2 ALA2        0.0000 
     75 CA         -0.1191   -5.7337    4.1739 C.3       6 GLY6        0.0000 
     76 O          -0.5817   -6.0181    5.5721 O.2       2 ALA2        0.0000 
     77 OD1        -0.4841    0.7675   10.2031 O.3       3 ASP3        0.0000 
     78 NZ         -0.9467    0.4831   11.6014 N.2       4 LYS4        0.0000 
     79 OD1         0.0589   -0.4208    8.5319 O.3       3 ASP3        0.0000 
     80 NZ         -0.4037   -0.7053    9.9301 N.2       4 LYS4        0.0000 
     81 NZ         -0.8663   -0.9897   11.3284 N.2       4 LYS4        0.0000 
     82 CA         -1.3289   -1.2741   12.7266 C.3       6 GLY6        0.0000 
     83 NZ          0.1393   -1.8936    8.2589 N.2       4 LYS4        0.0000 
     84 N          -0.3234   -2.1780    9.6571 N.2       2 ALA2        0.0000 
     85 N          -0.7860   -2.4625   11.0554 N.2       2 ALA2        0.0000 
     86 N           0.6822   -3.0819    6.5876 N.2       2 ALA2        0.0000 
     87 NZ          0.2196   -3.3663    7.9859 N.2       4 LYS4        0.0000 
     88 N          -0.2430   -3.6508    9.3841 N.2       2 ALA2        0.0000 
     89 N           0.7626   -4.5546    6.3146 N.2       2 ALA2        0.0000 
     90 CA          0.3000   -4.8391    7.7128 C.3       6 GLY6        0.0000 
     91 CA         -0.1627   -5.1235    9.1111 C.3       6 GLY6        0.0000 
     92 NZ          1.1013   -2.1873   10.1266 N.2       4 LYS4        0.0000 
     93 NZ          1.1816   -3.6601    9.8535 N.2       4 LYS4        0.0000 
@<TRIPOS>BOND
@<TRIPOS>SUBSTRUCTURE
     1 SER1       14 GROUP   
     2 ALA2       21 GROUP   
     3 ASP3       77 GROUP   
     4 LYS4       78 GROUP   
     5 PHE5        2 GROUP   
     6 GLY6        1 GROUP   
     7 CUB7        6 GROUP   
@<TRIPOS>SET

