#    Name: 2evc_FC3_1_INTS_M
#    Modification time : Tue Mar 25 11:49:23 2014

@<TRIPOS>MOLECULE
2evc_FC3_1_INTS_M
   47     0     9     0     0
SMALL
NO_CHARGES


@<TRIPOS>ATOM
      1 N          -1.3430   -0.6470    6.8075 N.am      1 SEC2        0.0000 
      2 N          -1.6830   -0.9390    8.3740 N.am      7 SEL2        0.0000 
      3 N          -1.0030   -0.3550    5.2410 N.am      4 SEP2        0.0000 
      4 Zn          1.9380   -0.2925    7.3305 Zn        2 ZIC7        0.0000 
      5 Zn          0.8660   -0.5700    7.2870 Zn        8 ZIL7        0.0000 
      6 Zn          3.0100   -0.0150    7.3740 Zn        5 ZIP7        0.0000 
      7 N          -0.0685   -0.4625    6.2640 N.am      1 SEC2        0.0000 
      8 N           0.8660   -0.5700    7.2870 N.am      7 SEL2        0.0000 
      9 Zn          2.0445    0.4480    9.9440 Zn        2 ZIC7        0.0000 
     10 Zn          1.7320   -0.2750    9.2490 Zn        8 ZIL7        0.0000 
     11 Zn          2.3570    1.1710   10.6390 Zn        5 ZIP7        0.0000 
     12 Zn          2.3710   -0.1450    8.3115 Zn        2 ZIC7        0.0000 
     13 CA         -8.1785   -0.9415    7.2145 C.3       3 GLC5        0.0000 
     14 CA         -6.5800   -0.9380    8.4480 C.3       9 GLL5        0.0000 
     15 CA         -9.7770   -0.9450    5.9810 C.3       6 GLP5        0.0000 
     16 CA         -7.7330    0.3165    9.8865 C.3       3 GLC5        0.0000 
     17 CA         -8.8860    1.5710   11.3250 C.3       6 GLP5        0.0000 
     18 CA         -3.6365    2.8430   10.5545 C.3       3 GLC5        0.0000 
     19 CA         -4.2430    1.3850    9.5890 C.3       9 GLL5        0.0000 
     20 CA         -3.0300    4.3010   11.5200 C.3       6 GLP5        0.0000 
     21 CA         -3.4605    2.3545    8.4155 C.3       3 GLC5        0.0000 
     22 CA         -2.6780    3.3240    7.2420 C.3       6 GLP5        0.0000 
     23 CA         -5.9070    3.1850   10.0675 C.3       3 GLC5        0.0000 
     24 CA         -6.3780    1.3030    9.8170 C.3       9 GLL5        0.0000 
     25 CA         -5.4360    5.0670   10.3180 C.3       6 GLP5        0.0000 
     26 CA         -6.8925    2.3280    8.3555 C.3       3 GLC5        0.0000 
     27 CA         -7.4070    3.3530    6.8940 C.3       6 GLP5        0.0000 
     28 CA         -7.6320    1.4370   10.5710 C.3       3 GLC5        0.0000 
     29 CA         -4.3030    0.0875   12.6005 C.3       3 GLC5        0.0000 
     30 CA         -5.1000    0.1940   11.1560 C.3       9 GLL5        0.0000 
     31 CA         -3.5060   -0.0190   14.0450 C.3       6 GLP5        0.0000 
     32 CA         -2.5715   -0.4052   12.2550 C.3       3 GLC5        0.0000 
     33 CA         -2.3350   -0.9150   10.4910 C.3       9 GLL5        0.0000 
     34 CA         -2.4515   -2.3712   11.2080 C.3       3 GLC5        0.0000 
     35 CA         -3.2660   -3.9510   11.9510 C.3       6 GLP5        0.0000 
     36 CA         -3.3550   -2.5848   10.4380 C.3       3 GLC5        0.0000 
     37 CA         -2.7590   -1.0760    9.1830 C.3       9 GLL5        0.0000 
     38 CA         -7.0098   -1.8473    5.8217 C.3       3 GLC5        0.0000 
     39 CA         -5.5770   -2.8140    7.2360 C.3       9 GLL5        0.0000 
     40 CA         -7.8760   -1.2660    4.2380 C.3       6 GLP5        0.0000 
     41 CA         -4.9900    2.5025   11.0828 C.3       3 GLC5        0.0000 
     42 CA         -5.2580    0.6140    9.9210 C.3       9 GLL5        0.0000 
     43 CA         -4.8010    4.6010   11.6270 C.3       6 GLP5        0.0000 
     44 CA         -5.3718    1.2172    7.9205 C.3       3 GLC5        0.0000 
     45 CA         -5.9930    1.4350    6.0860 C.3       6 GLP5        0.0000 
     46 CA         -6.6595    0.8625   11.5742 C.3       3 GLC5        0.0000 
     47 CA         -8.1400    1.3210   12.6100 C.3       6 GLP5        0.0000 
@<TRIPOS>BOND
@<TRIPOS>SUBSTRUCTURE
     1 SEC2        1 GROUP        1 X    SEC  0     ROOT SEC X 2
     2 ZIC7        4 GROUP        1 X    ZIC  0     **** ZIC X 5
     3 GLC5       13 GROUP        1 X    GLC  0     **** GLC X 6
     4 SEP2        3 GROUP        1 Y    SEP  0     ROOT SEP Y 9
     5 ZIP7        6 GROUP        1 Y    ZIP  0     **** ZIP Y 12
     6 GLP5       15 GROUP        1 Y    GLP  0     **** GLP Y 13
     7 SEL2        2 GROUP        1 Z    SEL  0     ROOT SEL Z 16
     8 ZIL7        5 GROUP        1 Z    ZIL  0     **** ZIL Z 19
     9 GLL5       14 GROUP        1 Z    GLL  0     **** GLL Z 20
@<TRIPOS>SET

