#    Name: 2evc_FC3_1_ligand
#    Modification time : Tue Mar 25 11:49:23 2014

@<TRIPOS>MOLECULE
2evc_FC3_1_ligand
   24    25     1     0     0
SMALL
NO_CHARGES


@<TRIPOS>ATOM
      1 OA         -1.6830   -0.9390    8.3740 O.3       1 FC3999      0.0000 
      2 CA         -0.5820   -0.6950    9.1100 C.2       1 FC3999      0.0000 
      3 C           0.7450   -0.5010    8.5280 C.2       1 FC3999      0.0000 
      4 OB          0.8660   -0.5700    7.2870 O.co2     1 FC3999      0.0000 
      5 CB         -0.9390   -0.6680   10.4390 C.2       1 FC3999      0.0000 
      6 CG         -2.3350   -0.9150   10.4910 C.2       1 FC3999      0.0000 
      7 CD         -2.7590   -1.0760    9.1830 C.2       1 FC3999      0.0000 
      8 OXT         1.7320   -0.2750    9.2490 O.co2     1 FC3999      0.0000 
      9 C1         -4.1290   -1.3610    8.6670 C.ar      1 FC3999      0.0000 
     10 C2         -5.3160   -0.5850    8.9970 C.ar      1 FC3999      0.0000 
     11 C3         -6.5800   -0.9380    8.4480 C.ar      1 FC3999      0.0000 
     12 C4         -6.7100   -2.0430    7.5750 C.ar      1 FC3999      0.0000 
     13 C5         -5.5770   -2.8140    7.2360 C.ar      1 FC3999      0.0000 
     14 C6         -4.3070   -2.4760    7.7750 C.ar      1 FC3999      0.0000 
     15 CL1        -5.2580    0.6140    9.9210 C.3       1 FC3999      0.0000 
     16 F1         -4.2430    1.3850    9.5890 F         1 FC3999      0.0000 
     17 F2         -6.3780    1.3030    9.8170 F         1 FC3999      0.0000 
     18 F3         -5.1000    0.1940   11.1560 F         1 FC3999      0.0000 
     19 H          -0.3884   -0.5183   11.1807 H         1 FC3999      0.0000 
     20 H          -2.8506   -0.9570   11.2687 H         1 FC3999      0.0000 
     21 H          -7.4063   -0.3812    8.6909 H         1 FC3999      0.0000 
     22 H          -7.6251   -2.2826    7.1899 H         1 FC3999      0.0000 
     23 H          -5.6658   -3.6102    6.6077 H         1 FC3999      0.0000 
     24 H          -3.4835   -3.0415    7.5244 H         1 FC3999      0.0000 
@<TRIPOS>BOND
     1    2    1 1    
     2    7    1 1    
     3    3    2 1    
     4    5    2 2    
     5    4    3 ar   
     6    8    3 ar   
     7    6    5 1    
     8   19    5 1    
     9    7    6 2    
    10   20    6 1    
    11    9    7 1    
    12   10    9 ar   
    13   14    9 ar   
    14   11   10 ar   
    15   15   10 1    
    16   12   11 ar   
    17   21   11 1    
    18   13   12 ar   
    19   22   12 1    
    20   14   13 ar   
    21   23   13 1    
    22   24   14 1    
    23   16   15 1    
    24   17   15 1    
    25   18   15 1    
@<TRIPOS>SUBSTRUCTURE
     1 FC3999      1 GROUP   
@<TRIPOS>SET

