#    Name: 1zsf_0ZS_1_INTS_M
#    Modification time : Mon Mar 24 17:48:52 2014

@<TRIPOS>MOLECULE
1zsf_0ZS_1_INTS_M
  110     0    12     0     0
SMALL
NO_CHARGES


@<TRIPOS>ATOM
      1 CA        -21.6250   37.7110   36.1460 C.3       4 GLC5        0.0000 
      2 CA        -21.8430   38.3730   34.2980 C.3      12 GLL5        0.0000 
      3 CA        -21.4070   37.0490   37.9940 C.3       8 GLP5        0.0000 
      4 CA        -25.3075   38.6960   31.8900 C.3       4 GLC5        0.0000 
      5 CA        -23.3200   38.2870   32.2650 C.3      12 GLL5        0.0000 
      6 CA        -27.2950   39.1050   31.5150 C.3       8 GLP5        0.0000 
      7 CA        -24.7910   37.0035   31.5160 C.3       4 GLC5        0.0000 
      8 CA        -26.2620   35.7200   30.7670 C.3       8 GLP5        0.0000 
      9 CA        -23.8295   41.2555   31.7855 C.3       4 GLC5        0.0000 
     10 CA        -22.4510   40.5070   33.1000 C.3      12 GLL5        0.0000 
     11 CA        -25.2080   42.0040   30.4710 C.3       8 GLP5        0.0000 
     12 CA        -23.9660   40.8245   34.6810 C.3       4 GLC5        0.0000 
     13 CA        -25.4810   41.1420   36.2620 C.3       8 GLP5        0.0000 
     14 CA        -22.4455   42.7510   32.9760 C.3       4 GLC5        0.0000 
     15 CA        -22.4400   44.9950   32.8520 C.3       8 GLP5        0.0000 
     16 O         -18.9215   37.9615   30.2515 O.2       1 ALC1        0.0000 
     17 O         -20.0650   38.7960   30.1080 O.2       9 ALL1        0.0000 
     18 O         -17.7780   37.1270   30.3950 O.2       5 ALP1        0.0000 
     19 CA        -18.6950   36.5475   28.4570 C.3       4 GLC5        0.0000 
     20 CA        -20.1440   37.9280   27.7750 C.3      12 GLL5        0.0000 
     21 CA        -17.2460   35.1670   29.1390 C.3       8 GLP5        0.0000 
     22 O         -19.5450   37.4090   26.0645 O.2       1 ALC1        0.0000 
     23 O         -20.2140   38.4230   26.4400 O.2       9 ALL1        0.0000 
     24 O         -18.8760   36.3950   25.6890 O.2       5 ALP1        0.0000 
     25 CA        -16.5780   38.6870   28.3060 C.3       4 GLC5        0.0000 
     26 CA        -18.3410   39.5200   28.5370 C.3      12 GLL5        0.0000 
     27 CA        -14.8150   37.8540   28.0750 C.3       8 GLP5        0.0000 
     28 CA        -15.8180   39.6315   28.6450 C.3       4 GLC5        0.0000 
     29 CA        -16.8210   41.4090   29.2150 C.3      12 GLL5        0.0000 
     30 CA        -15.2800   42.6775   28.0700 C.3       4 GLC5        0.0000 
     31 CA        -16.5680   42.7460   29.4670 C.3      12 GLL5        0.0000 
     32 CA        -13.9920   42.6090   26.6730 C.3       8 GLP5        0.0000 
     33 OD1       -20.5005   35.2525   26.6725 O.co2     3 ASC3        0.0000 
     34 OD1       -21.8880   36.2290   27.2250 O.co2    11 ASL3        0.0000 
     35 OD1       -19.1130   34.2760   26.1200 O.co2     7 ASP3        0.0000 
     36 OD1       -20.3820   36.3120   26.4570 O.co2     3 ASC3        0.0000 
     37 OD1       -18.8760   36.3950   25.6890 O.co2     7 ASP3        0.0000 
     38 OD1       -21.0090   34.9350   27.9450 O.co2     3 ASC3        0.0000 
     39 OD1       -20.1300   33.6410   28.6650 O.co2     7 ASP3        0.0000 
     40 OD1       -22.0050   35.3530   28.1555 O.co2     3 ASC3        0.0000 
     41 OD1       -22.1220   34.4770   29.0860 O.co2     7 ASP3        0.0000 
     42 CA        -22.5740   34.3455   26.2835 C.3       4 GLC5        0.0000 
     43 CA        -23.2940   36.2000   26.8770 C.3      12 GLL5        0.0000 
     44 CA        -21.8540   32.4910   25.6900 C.3       8 GLP5        0.0000 
     45 CA        -26.9045   38.3490   29.7280 C.3       4 GLC5        0.0000 
     46 CA        -26.5140   37.5930   27.9410 C.3      12 GLL5        0.0000 
     47 CA        -27.4715   39.4895   28.2375 C.3       4 GLC5        0.0000 
     48 CA        -27.8330   37.5610   27.5410 C.3      12 GLL5        0.0000 
     49 CA        -27.1100   41.4180   28.9340 C.3       8 GLP5        0.0000 
     50 CA        -29.4620   38.3430   28.3345 C.3       4 GLC5        0.0000 
     51 CA        -31.0910   39.1250   29.1280 C.3       8 GLP5        0.0000 
     52 CA        -28.4475   35.4825   28.0395 C.3       4 GLC5        0.0000 
     53 CA        -29.0620   33.4040   28.5380 C.3       8 GLP5        0.0000 
     54 CA        -30.3005   37.2330   27.1165 C.3       4 GLC5        0.0000 
     55 CA        -28.3040   36.4880   26.8040 C.3      12 GLL5        0.0000 
     56 CA        -32.2970   37.9780   27.4290 C.3       8 GLP5        0.0000 
     57 CA        -29.5705   35.2705   26.8545 C.3       4 GLC5        0.0000 
     58 CA        -30.8370   34.0530   26.9050 C.3       8 GLP5        0.0000 
     59 O         -23.4100   35.3070   24.4480 O.2       1 ALC1        0.0000 
     60 O         -23.6270   36.6240   24.5050 O.2       9 ALL1        0.0000 
     61 O         -23.1930   33.9900   24.3910 O.2       5 ALP1        0.0000 
     62 CA        -22.6045   35.9675   22.9115 C.3       4 GLC5        0.0000 
     63 CA        -23.8600   37.4790   23.3450 C.3      12 GLL5        0.0000 
     64 CA        -21.3490   34.4560   22.4780 C.3       8 GLP5        0.0000 
     65 N         -23.5705   34.8075   21.1760 N.am      2 SEC2        0.0000 
     66 N         -24.5480   35.6740   21.9240 N.am     10 SEL2        0.0000 
     67 N         -22.5930   33.9410   20.4280 N.am      6 SEP2        0.0000 
     68 CA        -21.0600   39.8650   20.5360 C.3       4 GLC5        0.0000 
     69 CA        -22.6210   38.9800   21.6810 C.3      12 GLL5        0.0000 
     70 CA        -19.4990   40.7500   19.3910 C.3       8 GLP5        0.0000 
     71 N         -23.2810   38.3900   18.1775 N.am      2 SEC2        0.0000 
     72 N         -22.8390   39.0310   19.2940 N.am     10 SEL2        0.0000 
     73 N         -23.7230   37.7490   17.0610 N.am      6 SEP2        0.0000 
     74 N         -22.2695   36.1665   19.3105 N.am      2 SEC2        0.0000 
     75 N         -23.0460   37.0970   20.2920 N.am     10 SEL2        0.0000 
     76 N         -21.4930   35.2360   18.3290 N.am      6 SEP2        0.0000 
     77 O         -26.0300   38.8620   22.2920 O.2       1 ALC1        0.0000 
     78 O         -25.7540   37.5420   21.8360 O.2       9 ALL1        0.0000 
     79 O         -26.3060   40.1820   22.7480 O.2       5 ALP1        0.0000 
     80 N         -27.2760   40.4190   20.2370 N.am      2 SEC2        0.0000 
     81 N         -27.2010   39.1410   19.9740 N.am     10 SEL2        0.0000 
     82 N         -27.3510   41.6970   20.5000 N.am      6 SEP2        0.0000 
     83 CA        -21.6479   36.8434   32.6996 C.3       4 GLC5        0.0000 
     84 CA        -20.6300   35.1960   32.4510 C.3       8 GLP5        0.0000 
     85 CA        -24.0384   37.8944   34.2481 C.3       4 GLC5        0.0000 
     86 CA        -25.4110   37.2980   35.5480 C.3       8 GLP5        0.0000 
     87 CA        -16.0750   41.2840   27.5852 C.3       4 GLC5        0.0000 
     88 CA        -18.0850   40.9850   28.8320 C.3      12 GLL5        0.0000 
     89 CA        -14.6970   41.3710   26.1470 C.3       8 GLP5        0.0000 
     90 CA        -20.5663   42.9038   29.1818 C.3       4 GLC5        0.0000 
     91 CA        -19.0970   41.9200   28.7190 C.3      12 GLL5        0.0000 
     92 CA        -22.1560   43.2190   29.5160 C.3       8 GLP5        0.0000 
     93 CA        -17.5545   44.6625   28.2506 C.3       4 GLC5        0.0000 
     94 CA        -18.8560   43.2570   28.9760 C.3      12 GLL5        0.0000 
     95 CA        -17.7130   46.2200   27.1860 C.3       8 GLP5        0.0000 
     96 CA        -25.5958   36.1390   29.3080 C.3       4 GLC5        0.0000 
     97 CA        -24.1970   36.5660   28.0640 C.3      12 GLL5        0.0000 
     98 CA        -26.1713   33.5708   26.6990 C.3       4 GLC5        0.0000 
     99 CA        -26.1470   35.4760   26.9040 C.3      12 GLL5        0.0000 
    100 CA        -25.5370   31.6860   26.7020 C.3       8 GLP5        0.0000 
    101 CA        -27.9337   34.4297   27.6170 C.3       4 GLC5        0.0000 
    102 CA        -26.5337   35.5877   28.7315 C.3       4 GLC5        0.0000 
    103 CA        -27.4640   35.4350   26.4880 C.3      12 GLL5        0.0000 
    104 CA        -26.7177   36.6485   29.2540 C.3       4 GLC5        0.0000 
    105 CA        -21.3755   36.9407   22.3030 C.3       4 GLC5        0.0000 
    106 CA        -22.5170   37.9150   22.7610 C.3      12 GLL5        0.0000 
    107 CA        -20.1820   35.4340   22.3850 C.3       8 GLP5        0.0000 
    108 CA        -28.8815   40.2133   22.2889 C.3       4 GLC5        0.0000 
    109 CA        -30.7020   39.3640   22.7900 C.3      12 GLL5        0.0000 
    110 CA        -27.8240   41.8320   21.8650 C.3       8 GLP5        0.0000 
@<TRIPOS>BOND
@<TRIPOS>SUBSTRUCTURE
     1 ALC1       16 GROUP        1 X    ALC  0     ROOT ALC X 1
     2 SEC2       65 GROUP        1 X    SEC  0     **** SEC X 2
     3 ASC3       33 GROUP        1 X    ASC  0     **** ASC X 3
     4 GLC5        1 GROUP        1 X    GLC  0     **** GLC X 6
     5 ALP1       18 GROUP        1 Y    ALP  0     ROOT ALP Y 8
     6 SEP2       67 GROUP        1 Y    SEP  0     **** SEP Y 9
     7 ASP3       35 GROUP        1 Y    ASP  0     **** ASP Y 10
     8 GLP5        3 GROUP        1 Y    GLP  0     **** GLP Y 13
     9 ALL1       17 GROUP        1 Z    ALL  0     ROOT ALL Z 15
    10 SEL2       66 GROUP        1 Z    SEL  0     **** SEL Z 16
    11 ASL3       34 GROUP        1 Z    ASL  0     **** ASL Z 17
    12 GLL5        2 GROUP        1 Z    GLL  0     **** GLL Z 20
@<TRIPOS>SET

