#    Name: 1zsf_0ZS_1_ligand
#    Modification time : Mon Mar 24 17:48:52 2014

@<TRIPOS>MOLECULE
1zsf_0ZS_1_ligand
   98   100     1     0     0
SMALL
NO_CHARGES


@<TRIPOS>ATOM
      1 O1        -21.9020   40.1520   30.4450 O.2       1 0ZS201      0.0000 
      2 C         -21.0870   39.3320   30.8210 C.2       1 0ZS201      0.0000 
      3 O2        -20.9950   38.8920   32.1020 O.3       1 0ZS201      0.0000 
      4 CT        -22.1800   39.0160   32.9650 C.3       1 0ZS201      0.0000 
      5 C1        -21.8430   38.3730   34.2980 C.3       1 0ZS201      0.0000 
      6 C2        -23.3200   38.2870   32.2650 C.3       1 0ZS201      0.0000 
      7 C3        -22.4510   40.5070   33.1000 C.3       1 0ZS201      0.0000 
      8 N1        -20.0650   38.7960   30.1080 N.am      1 0ZS201      0.0000 
      9 CA1       -19.8070   39.1060   28.7090 C.3       1 0ZS201      0.0000 
     10 C5        -20.1440   37.9280   27.7750 C.3       1 0ZS201      0.0000 
     11 OXT       -20.2140   38.4230   26.4400 O.3       1 0ZS201      0.0000 
     12 CB1       -18.3410   39.5200   28.5370 C.3       1 0ZS201      0.0000 
     13 CG1       -18.0850   40.9850   28.8320 C.ar      1 0ZS201      0.0000 
     14 CD11      -19.0970   41.9200   28.7190 C.ar      1 0ZS201      0.0000 
     15 CD21      -16.8210   41.4090   29.2150 C.ar      1 0ZS201      0.0000 
     16 CE11      -18.8560   43.2570   28.9760 C.ar      1 0ZS201      0.0000 
     17 CE21      -16.5680   42.7460   29.4670 C.ar      1 0ZS201      0.0000 
     18 CZ1       -17.5920   43.6710   29.3510 C.ar      1 0ZS201      0.0000 
     19 CM        -21.4900   37.2860   28.1590 C.3       1 0ZS201      0.0000 
     20 N         -21.8880   36.2290   27.2250 N.4       1 0ZS201      0.0000 
     21 CA        -23.2940   36.2000   26.8770 C.3       1 0ZS201      0.0000 
     22 C4        -23.6240   37.1520   25.7250 C.2       1 0ZS201      0.0000 
     23 O         -23.9780   38.3130   25.9350 O.2       1 0ZS201      0.0000 
     24 CB        -24.1970   36.5660   28.0640 C.3       1 0ZS201      0.0000 
     25 CG        -25.6620   36.5500   27.6340 C.ar      1 0ZS201      0.0000 
     26 CD1       -26.1470   35.4760   26.9040 C.ar      1 0ZS201      0.0000 
     27 CD2       -26.5140   37.5930   27.9410 C.ar      1 0ZS201      0.0000 
     28 CE1       -27.4640   35.4350   26.4880 C.ar      1 0ZS201      0.0000 
     29 CE2       -27.8330   37.5610   27.5410 C.ar      1 0ZS201      0.0000 
     30 CZ        -28.3040   36.4880   26.8040 C.ar      1 0ZS201      0.0000 
     31 N2        -23.6270   36.6240   24.5050 N.am      1 0ZS201      0.0000 
     32 CA2       -23.8600   37.4790   23.3450 C.3       1 0ZS201      0.0000 
     33 C6        -24.7490   36.8140   22.3120 C.2       1 0ZS201      0.0000 
     34 O3        -24.5480   35.6740   21.9240 O.2       1 0ZS201      0.0000 
     35 CB2       -22.5170   37.9150   22.7610 C.3       1 0ZS201      0.0000 
     36 CG2       -22.6210   38.9800   21.6810 C.3       1 0ZS201      0.0000 
     37 CD        -22.8940   38.3370   20.3300 C.2       1 0ZS201      0.0000 
     38 OE1       -22.8390   39.0310   19.2940 O.co2     1 0ZS201      0.0000 
     39 OE2       -23.0460   37.0970   20.2920 O.co2     1 0ZS201      0.0000 
     40 N3        -25.7540   37.5420   21.8360 N.am      1 0ZS201      0.0000 
     41 CA3       -26.5920   36.9600   20.7790 C.3       1 0ZS201      0.0000 
     42 C7        -26.8450   38.0000   19.6920 C.2       1 0ZS201      0.0000 
     43 O4        -27.2010   39.1410   19.9740 O.2       1 0ZS201      0.0000 
     44 CB3       -27.9010   36.4210   21.3390 C.3       1 0ZS201      0.0000 
     45 CG3       -28.8940   37.4590   21.8350 C.ar      1 0ZS201      0.0000 
     46 CD12      -29.6950   38.1760   20.9680 C.ar      1 0ZS201      0.0000 
     47 CD22      -29.0100   37.7110   23.1950 C.ar      1 0ZS201      0.0000 
     48 CE12      -30.5810   39.1200   21.4310 C.ar      1 0ZS201      0.0000 
     49 CE22      -29.9060   38.6550   23.6670 C.ar      1 0ZS201      0.0000 
     50 CZ2       -30.7020   39.3640   22.7900 C.ar      1 0ZS201      0.0000 
     51 N4        -26.6320   37.5980   18.4320 N.am      1 0ZS201      0.0000 
     52 H         -19.4005   38.1155   30.5533 H         1 0ZS201      0.0000 
     53 H         -20.4186   39.9583   28.3973 H         1 0ZS201      0.0000 
     54 H         -19.3719   37.1883   27.8789 H         1 0ZS201      0.0000 
     55 H         -18.0308   39.2968   27.5039 H         1 0ZS201      0.0000 
     56 H         -17.7195   38.9003   29.2027 H         1 0ZS201      0.0000 
     57 H         -20.0469   41.6155   28.4386 H         1 0ZS201      0.0000 
     58 H         -16.0582   40.7154   29.3132 H         1 0ZS201      0.0000 
     59 H         -19.6191   43.9445   28.8878 H         1 0ZS201      0.0000 
     60 H         -15.6248   43.0514   29.7390 H         1 0ZS201      0.0000 
     61 H         -17.4104   44.6665   29.5443 H         1 0ZS201      0.0000 
     62 H         -22.2472   38.0845   28.1907 H         1 0ZS201      0.0000 
     63 H         -21.3940   36.8882   29.1810 H         1 0ZS201      0.0000 
     64 H         -23.5908   35.1950   26.5531 H         1 0ZS201      0.0000 
     65 H         -23.9346   37.5575   28.4178 H         1 0ZS201      0.0000 
     66 H         -24.0460   35.8455   28.8610 H         1 0ZS201      0.0000 
     67 H         -25.5100   34.6921   26.6674 H         1 0ZS201      0.0000 
     68 H         -26.1580   38.4050   28.4760 H         1 0ZS201      0.0000 
     69 H         -27.8151   34.6349   25.9520 H         1 0ZS201      0.0000 
     70 H         -28.4689   38.3329   27.7888 H         1 0ZS201      0.0000 
     71 H         -29.2873   36.4738   26.4886 H         1 0ZS201      0.0000 
     72 H         -23.4719   35.6259   24.3179 H         1 0ZS201      0.0000 
     73 H         -24.3705   38.4002   23.6838 H         1 0ZS201      0.0000 
     74 H         -22.0059   37.0284   22.3452 H         1 0ZS201      0.0000 
     75 H         -21.8795   38.2930   23.5800 H         1 0ZS201      0.0000 
     76 H         -21.6880   39.5380   21.6330 H         1 0ZS201      0.0000 
     77 H         -23.4312   39.6641   21.9252 H         1 0ZS201      0.0000 
     78 H         -25.9889   38.4778   22.1498 H         1 0ZS201      0.0000 
     79 H         -26.0559   36.1258   20.3141 H         1 0ZS201      0.0000 
     80 H         -27.6696   35.7202   22.1727 H         1 0ZS201      0.0000 
     81 H         -28.3935   35.7996   20.5572 H         1 0ZS201      0.0000 
     82 H         -29.6246   37.9964   19.9449 H         1 0ZS201      0.0000 
     83 H         -28.4187   37.1859   23.8632 H         1 0ZS201      0.0000 
     84 H         -31.1641   39.6549   20.7638 H         1 0ZS201      0.0000 
     85 H         -29.9781   38.8288   24.6839 H         1 0ZS201      0.0000 
     86 H         -31.3699   40.0575   23.1343 H         1 0ZS201      0.0000 
     87 H         -26.8098   38.2753   17.7181 H         1 0ZS201      0.0000 
     88 H         -26.3143   36.6567   18.3182 H         1 0ZS201      0.0000 
     89 H         -21.6074   37.4066   34.1952 H         1 0ZS201      0.0000 
     90 H         -21.0644   38.8192   34.7393 H         1 0ZS201      0.0000 
     91 H         -22.6098   38.4212   34.9380 H         1 0ZS201      0.0000 
     92 H         -23.5181   38.6820   31.3679 H         1 0ZS201      0.0000 
     93 H         -23.1089   37.3204   32.1196 H         1 0ZS201      0.0000 
     94 H         -24.1667   38.3255   32.7956 H         1 0ZS201      0.0000 
     95 H         -21.6759   40.9900   33.5075 H         1 0ZS201      0.0000 
     96 H         -22.6291   40.9339   32.2134 H         1 0ZS201      0.0000 
     97 H         -23.2465   40.6891   33.6780 H         1 0ZS201      0.0000 
     98 H         -20.2093   37.6075   25.8612 H         1 0ZS201      0.0000 
@<TRIPOS>BOND
     1    2    1 2    
     2    3    2 1    
     3    8    2 am   
     4    4    3 1    
     5    5    4 1    
     6    6    4 1    
     7    7    4 1    
     8   89    5 1    
     9   90    5 1    
    10   91    5 1    
    11   92    6 1    
    12   93    6 1    
    13   94    6 1    
    14   95    7 1    
    15   96    7 1    
    16   97    7 1    
    17    9    8 1    
    18   52    8 1    
    19   10    9 1    
    20   12    9 1    
    21   53    9 1    
    22   11   10 1    
    23   19   10 1    
    24   54   10 1    
    25   98   11 1    
    26   13   12 1    
    27   55   12 1    
    28   56   12 1    
    29   14   13 ar   
    30   15   13 ar   
    31   16   14 ar   
    32   57   14 1    
    33   17   15 ar   
    34   58   15 1    
    35   18   16 ar   
    36   59   16 1    
    37   18   17 ar   
    38   60   17 1    
    39   61   18 1    
    40   20   19 1    
    41   62   19 1    
    42   63   19 1    
    43   21   20 1    
    44   22   21 1    
    45   24   21 1    
    46   64   21 1    
    47   23   22 2    
    48   31   22 am   
    49   25   24 1    
    50   65   24 1    
    51   66   24 1    
    52   26   25 ar   
    53   27   25 ar   
    54   28   26 ar   
    55   67   26 1    
    56   29   27 ar   
    57   68   27 1    
    58   30   28 ar   
    59   69   28 1    
    60   30   29 ar   
    61   70   29 1    
    62   71   30 1    
    63   32   31 1    
    64   72   31 1    
    65   33   32 1    
    66   35   32 1    
    67   73   32 1    
    68   34   33 2    
    69   40   33 am   
    70   36   35 1    
    71   74   35 1    
    72   75   35 1    
    73   37   36 1    
    74   76   36 1    
    75   77   36 1    
    76   38   37 ar   
    77   39   37 ar   
    78   41   40 1    
    79   78   40 1    
    80   42   41 1    
    81   44   41 1    
    82   79   41 1    
    83   43   42 2    
    84   51   42 am   
    85   45   44 1    
    86   80   44 1    
    87   81   44 1    
    88   46   45 ar   
    89   47   45 ar   
    90   48   46 ar   
    91   82   46 1    
    92   49   47 ar   
    93   83   47 1    
    94   50   48 ar   
    95   84   48 1    
    96   50   49 ar   
    97   85   49 1    
    98   86   50 1    
    99   87   51 1    
   100   88   51 1    
@<TRIPOS>SUBSTRUCTURE
     1 0ZS201      1 GROUP   
@<TRIPOS>SET

