#    Name: 3fl4_FL4_1_INTS_M
#    Modification time : Tue Mar 25 05:39:46 2014

@<TRIPOS>MOLECULE
3fl4_FL4_1_INTS_M
   72     0     9     0     0
SMALL
NO_CHARGES


@<TRIPOS>ATOM
      1 CA         42.1030   52.1605   92.1440 C.3       3 GLC5        0.0000 
      2 CA         44.0370   52.7060   92.6440 C.3       9 GLL5        0.0000 
      3 CA         40.1690   51.6150   91.6440 C.3       6 GLP5        0.0000 
      4 CA         37.2400   56.1570   91.0405 C.3       3 GLC5        0.0000 
      5 CA         38.8090   55.0640   91.7180 C.3       9 GLL5        0.0000 
      6 CA         35.6710   57.2500   90.3630 C.3       6 GLP5        0.0000 
      7 CA         42.7230   52.9535   94.1735 C.3       3 GLC5        0.0000 
      8 CA         43.1950   54.8270   93.0770 C.3       9 GLL5        0.0000 
      9 CA         42.2510   51.0800   95.2700 C.3       6 GLP5        0.0000 
     10 CA         43.6795   54.9310   91.4035 C.3       3 GLC5        0.0000 
     11 CA         44.1640   55.0350   89.7300 C.3       6 GLP5        0.0000 
     12 CA         45.7520   56.0605   94.5425 C.3       3 GLC5        0.0000 
     13 CA         45.5290   54.4600   93.2940 C.3       9 GLL5        0.0000 
     14 CA         45.9750   57.6610   95.7910 C.3       6 GLP5        0.0000 
     15 CA         37.4645   52.5010   94.3775 C.3       3 GLC5        0.0000 
     16 CA         38.9490   54.0240   93.8970 C.3       9 GLL5        0.0000 
     17 CA         35.9800   50.9780   94.8580 C.3       6 GLP5        0.0000 
     18 CA         36.3210   55.5505   91.4895 C.3       3 GLC5        0.0000 
     19 CA         36.9710   53.8510   92.6160 C.3       9 GLL5        0.0000 
     20 CA         35.3100   53.6970   92.0235 C.3       3 GLC5        0.0000 
     21 CA         33.6490   53.5430   91.4310 C.3       6 GLP5        0.0000 
     22 CA         36.4755   52.4145   93.7370 C.3       3 GLC5        0.0000 
     23 CA         37.8960   52.4790   91.8680 C.3       3 GLC5        0.0000 
     24 CA         38.8210   51.1070   91.1200 C.3       6 GLP5        0.0000 
     25 CA         42.0920   54.2085   96.3735 C.3       3 GLC5        0.0000 
     26 CA         40.9420   54.1970   95.1480 C.3       9 GLL5        0.0000 
     27 CA         43.2420   54.2200   97.5990 C.3       6 GLP5        0.0000 
     28 CA         39.8670   53.1125   96.7230 C.3       3 GLC5        0.0000 
     29 CA         38.7920   52.0280   98.2980 C.3       6 GLP5        0.0000 
     30 CA         39.9970   57.1035   93.8200 C.3       3 GLC5        0.0000 
     31 CA         40.8440   55.2400   93.0200 C.3       9 GLL5        0.0000 
     32 CA         39.1500   58.9670   94.6200 C.3       6 GLP5        0.0000 
     33 O          43.3130   50.2870   91.9820 O.2       1 ALC1        0.0000 
     34 O          44.0440   51.4030   92.3100 O.2       7 ALL1        0.0000 
     35 O          42.5820   49.1710   91.6540 O.2       4 ALP1        0.0000 
     36 N          45.6845   49.5890   92.0955 N.am      2 SEC2        0.0000 
     37 N          45.3780   50.9470   92.3680 N.am      8 SEL2        0.0000 
     38 N          45.9910   48.2310   91.8230 N.am      5 SEP2        0.0000 
     39 CA         48.7335   54.8600   92.5240 C.3       3 GLC5        0.0000 
     40 CA         48.0100   53.8580   91.0330 C.3       9 GLL5        0.0000 
     41 CA         49.4570   55.8620   94.0150 C.3       6 GLP5        0.0000 
     42 CA         46.8030   54.1285   89.4075 C.3       3 GLC5        0.0000 
     43 CA         45.5960   54.3990   87.7820 C.3       6 GLP5        0.0000 
     44 CA         46.9625   49.7905   94.8560 C.3       3 GLC5        0.0000 
     45 CA         48.1730   50.8920   93.8100 C.3       9 GLL5        0.0000 
     46 CA         45.7520   48.6890   95.9020 C.3       6 GLP5        0.0000 
     47 CA         47.6275   49.4615   92.3395 C.3       3 GLC5        0.0000 
     48 CA         47.0820   48.0310   90.8690 C.3       6 GLP5        0.0000 
     49 CA         39.3430   53.1523   91.9370 C.3       3 GLC5        0.0000 
     50 CA         38.2250   54.3150   92.7420 C.3       9 GLL5        0.0000 
     51 CA         43.4633   52.0003   94.0275 C.3       3 GLC5        0.0000 
     52 CA         39.6677   54.4592   90.0207 C.3       3 GLC5        0.0000 
     53 CA         40.1200   55.5250   91.8610 C.3       9 GLL5        0.0000 
     54 CA         39.8710   53.6240   88.2520 C.3       6 GLP5        0.0000 
     55 CA         40.3255   53.4988   92.0422 C.3       3 GLC5        0.0000 
     56 CA         44.6331   54.3626   91.3847 C.3       3 GLC5        0.0000 
     57 CA         36.4320   54.7711   93.7989 C.3       3 GLC5        0.0000 
     58 CA         35.0850   55.5320   94.6300 C.3       6 GLP5        0.0000 
     59 CA         41.4250   52.7103   94.9297 C.3       3 GLC5        0.0000 
     60 CA         40.2560   54.4840   94.0310 C.3       9 GLL5        0.0000 
     61 CA         39.6056   55.3983   95.6745 C.3       3 GLC5        0.0000 
     62 CA         38.9390   56.5710   96.7930 C.3       6 GLP5        0.0000 
     63 CA         40.2206   52.9203   93.1000 C.3       3 GLC5        0.0000 
     64 CA         47.6660   50.7350   91.2445 C.3       3 GLC5        0.0000 
     65 CA         47.6850   51.8410   92.9110 C.3       9 GLL5        0.0000 
     66 CA         47.1980   49.2360   89.9350 C.3       6 GLP5        0.0000 
     67 CA         48.3128   52.6167   89.7730 C.3       3 GLC5        0.0000 
     68 CA         48.5830   52.6270   92.1970 C.3       9 GLL5        0.0000 
     69 CA         48.3290   51.9910   87.9310 C.3       6 GLP5        0.0000 
     70 CA         51.4740   51.1000   91.6968 C.3       3 GLC5        0.0000 
     71 CA         49.9580   52.4730   92.3870 C.3       9 GLL5        0.0000 
     72 CA         52.7480   50.1980   90.5550 C.3       6 GLP5        0.0000 
@<TRIPOS>BOND
@<TRIPOS>SUBSTRUCTURE
     1 ALC1       33 GROUP        1 X    ALC  0     ROOT ALC X 1
     2 SEC2       36 GROUP        1 X    SEC  0     **** SEC X 2
     3 GLC5        1 GROUP        1 X    GLC  0     **** GLC X 6
     4 ALP1       35 GROUP        1 Y    ALP  0     ROOT ALP Y 8
     5 SEP2       38 GROUP        1 Y    SEP  0     **** SEP Y 9
     6 GLP5        3 GROUP        1 Y    GLP  0     **** GLP Y 13
     7 ALL1       34 GROUP        1 Z    ALL  0     ROOT ALL Z 15
     8 SEL2       37 GROUP        1 Z    SEL  0     **** SEL Z 16
     9 GLL5        2 GROUP        1 Z    GLL  0     **** GLL Z 20
@<TRIPOS>SET

