#    Name: 3fl4_FL4_1_ligand
#    Modification time : Tue Mar 25 05:39:46 2014

@<TRIPOS>MOLECULE
3fl4_FL4_1_ligand
   37    40     1     0     0
SMALL
NO_CHARGES


@<TRIPOS>ATOM
      1 C4         38.2250   54.3150   92.7420 C.ar      1 FL4361      0.0000 
      2 C14        44.0370   52.7060   92.6440 C.ar      1 FL4361      0.0000 
      3 C5         38.8090   55.0640   91.7180 C.ar      1 FL4361      0.0000 
      4 C6         40.1200   55.5250   91.8610 C.ar      1 FL4361      0.0000 
      5 C10        43.1950   54.8270   93.0770 C.ar      1 FL4361      0.0000 
      6 C12        45.5290   54.4600   93.2940 C.ar      1 FL4361      0.0000 
      7 C13        45.3140   53.1350   92.9260 C.ar      1 FL4361      0.0000 
      8 C3         38.9490   54.0240   93.8970 C.ar      1 FL4361      0.0000 
      9 F8         36.9710   53.8510   92.6160 F         1 FL4361      0.0000 
     10 C2         40.2560   54.4840   94.0310 C.ar      1 FL4361      0.0000 
     11 F7         40.9420   54.1970   95.1480 F         1 FL4361      0.0000 
     12 C1         40.8440   55.2400   93.0200 C.ar      1 FL4361      0.0000 
     13 O9         42.1360   55.6970   93.1580 O.3       1 FL4361      0.0000 
     14 N11        44.4560   55.2700   93.3570 N.ar      1 FL4361      0.0000 
     15 N15        42.9710   53.5340   92.7140 N.ar      1 FL4361      0.0000 
     16 N18        44.0440   51.4030   92.3100 N.pl3     1 FL4361      0.0000 
     17 N17        45.3780   50.9470   92.3680 N.2       1 FL4361      0.0000 
     18 C16        46.2030   51.9580   92.7370 C.2       1 FL4361      0.0000 
     19 C19        47.6850   51.8410   92.9110 C.ar      1 FL4361      0.0000 
     20 C24        48.5830   52.6270   92.1970 C.ar      1 FL4361      0.0000 
     21 CL1        48.0100   53.8580   91.0330 C.3       1 FL4361      0.0000 
     22 C20        48.1730   50.8920   93.8100 C.ar      1 FL4361      0.0000 
     23 C21        49.5470   50.7360   94.0020 C.ar      1 FL4361      0.0000 
     24 C22        50.4420   51.5310   93.2900 C.ar      1 FL4361      0.0000 
     25 C23        49.9580   52.4730   92.3870 C.ar      1 FL4361      0.0000 
     26 H          38.2796   55.2741   90.8675 H         1 FL4361      0.0000 
     27 H          40.5531   56.0766   91.1090 H         1 FL4361      0.0000 
     28 H          46.4720   54.7835   93.5036 H         1 FL4361      0.0000 
     29 H          38.5182   53.4711   94.6474 H         1 FL4361      0.0000 
     30 H          43.3042   50.8536   92.0716 H         1 FL4361      0.0000 
     31 H          47.5136   50.3008   94.3371 H         1 FL4361      0.0000 
     32 H          49.8955   50.0364   94.6669 H         1 FL4361      0.0000 
     33 H          51.4517   51.4225   93.4306 H         1 FL4361      0.0000 
     34 H          50.6154   53.0604   91.8553 H         1 FL4361      0.0000 
     35 H          48.7704   54.3430   90.6010 H         1 FL4361      0.0000 
     36 H          47.4672   53.4505   90.2986 H         1 FL4361      0.0000 
     37 H          47.4355   54.5474   91.4742 H         1 FL4361      0.0000 
@<TRIPOS>BOND
     1    3    1 ar   
     2    8    1 ar   
     3    9    1 1    
     4    7    2 ar   
     5   15    2 ar   
     6   16    2 1    
     7    4    3 ar   
     8   26    3 1    
     9   12    4 ar   
    10   27    4 1    
    11   13    5 1    
    12   14    5 ar   
    13   15    5 ar   
    14    7    6 ar   
    15   14    6 ar   
    16   28    6 1    
    17   18    7 1    
    18   10    8 ar   
    19   29    8 1    
    20   11   10 1    
    21   12   10 ar   
    22   13   12 1    
    23   17   16 1    
    24   30   16 1    
    25   18   17 2    
    26   19   18 1    
    27   20   19 ar   
    28   22   19 ar   
    29   21   20 1    
    30   25   20 ar   
    31   35   21 1    
    32   36   21 1    
    33   37   21 1    
    34   23   22 ar   
    35   31   22 1    
    36   24   23 ar   
    37   32   23 1    
    38   25   24 ar   
    39   33   24 1    
    40   34   25 1    
@<TRIPOS>SUBSTRUCTURE
     1 FL4361      1 GROUP   
@<TRIPOS>SET

