#    Name: 3GJT_1_CAVITY_N1_6.mol2
#    Modification time : Mon Mar 10 19:31:03 2014

@<TRIPOS>MOLECULE
3GJT_1_CAVITY_N1_6.mol2
  118     0     5     0     0
SMALL
NO_CHARGES


@<TRIPOS>ATOM
      1 OG         10.5863   32.5071   60.0246 O.2       1 SER1        0.0000 
      2 OG         10.1736   31.1688   59.4874 O.2       1 SER1        0.0000 
      3 N          11.2448   38.5294   61.2691 N.2       2 ALA2        0.0000 
      4 N           8.9603   34.4078   60.7268 N.2       2 ALA2        0.0000 
      5 N          10.0067   34.5144   59.6575 N.2       2 ALA2        0.0000 
      6 DU          8.5476   33.0695   60.1896 H         5 CUB7        0.0000 
      7 CA          9.5941   33.1761   59.1203 C.3       4 GLY6        0.0000 
      8 CA         10.6405   33.2826   58.0509 C.3       4 GLY6        0.0000 
      9 DU          8.1349   31.7312   59.6524 H         5 CUB7        0.0000 
     10 CZ          9.1814   31.8377   58.5831 C.ar      3 PHE5        0.0000 
     11 CZ          7.7222   30.3929   59.1152 C.ar      3 PHE5        0.0000 
     12 O           9.2061   39.0918   61.4341 O.2       2 ALA2        0.0000 
     13 N          10.2525   39.1983   60.3647 N.2       2 ALA2        0.0000 
     14 O          11.2990   39.3049   59.2953 O.2       2 ALA2        0.0000 
     15 DU          8.7934   37.7535   60.8969 H         5 CUB7        0.0000 
     16 N           9.8398   37.8600   59.8275 N.2       2 ALA2        0.0000 
     17 N           8.3807   36.4151   60.3597 N.2       2 ALA2        0.0000 
     18 N           9.4272   36.5217   59.2903 N.2       2 ALA2        0.0000 
     19 N          10.4736   36.6282   58.2209 N.2       2 ALA2        0.0000 
     20 DU          6.9215   34.9703   60.8918 H         5 CUB7        0.0000 
     21 DU          7.9680   35.0768   59.8225 H         5 CUB7        0.0000 
     22 N           9.0145   35.1834   58.7531 N.2       2 ALA2        0.0000 
     23 N          10.0610   35.2899   57.6837 N.2       2 ALA2        0.0000 
     24 DU          6.5088   33.6320   60.3546 H         5 CUB7        0.0000 
     25 DU          7.5553   33.7385   59.2853 H         5 CUB7        0.0000 
     26 DU          8.6018   33.8451   58.2159 H         5 CUB7        0.0000 
     27 CZ          9.6483   33.9516   57.1465 C.ar      3 PHE5        0.0000 
     28 DU          7.1426   32.4002   58.7481 H         5 CUB7        0.0000 
     29 CZ          8.1891   32.5067   57.6787 C.ar      3 PHE5        0.0000 
     30 DU          6.7300   31.0619   58.2109 H         5 CUB7        0.0000 
     31 CZ          7.7764   31.1684   57.1415 C.ar      3 PHE5        0.0000 
     32 CZ          6.3173   29.7235   57.6737 C.ar      3 PHE5        0.0000 
     33 CZ          7.3637   29.8301   56.6043 C.ar      3 PHE5        0.0000 
     34 O           9.6729   41.2057   59.9975 O.2       2 ALA2        0.0000 
     35 N          10.7194   41.3122   58.9282 N.2       2 ALA2        0.0000 
     36 O           9.2603   39.8673   59.4603 O.2       2 ALA2        0.0000 
     37 N          10.3067   39.9739   58.3910 N.2       2 ALA2        0.0000 
     38 O           7.8011   38.4225   59.9925 O.2       2 ALA2        0.0000 
     39 DU          8.8476   38.5290   58.9231 H         5 CUB7        0.0000 
     40 CA          9.8941   38.6356   57.8538 C.3       4 GLY6        0.0000 
     41 N           6.3420   36.9776   60.5247 N.2       2 ALA2        0.0000 
     42 N           7.3884   37.0841   59.4553 N.2       2 ALA2        0.0000 
     43 N           8.4349   37.1907   58.3859 N.2       2 ALA2        0.0000 
     44 CA          9.4814   37.2972   57.3166 C.3       4 GLY6        0.0000 
     45 N           5.9293   35.6393   59.9875 N.2       2 ALA2        0.0000 
     46 N           6.9757   35.7458   58.9181 N.2       2 ALA2        0.0000 
     47 N           8.0222   35.8524   57.8487 N.2       2 ALA2        0.0000 
     48 CZ          9.0687   35.9589   56.7794 C.ar      3 PHE5        0.0000 
     49 O           4.4701   34.1944   60.5196 O.2       2 ALA2        0.0000 
     50 N           5.5166   34.3009   59.4503 N.2       2 ALA2        0.0000 
     51 N           6.5631   34.4075   58.3809 N.2       2 ALA2        0.0000 
     52 CZ          7.6095   34.5140   57.3115 C.ar      3 PHE5        0.0000 
     53 O           4.0574   32.8561   59.9824 O.2       2 ALA2        0.0000 
     54 DU          5.1039   32.9626   58.9131 H         5 CUB7        0.0000 
     55 DU          6.1504   33.0692   57.8437 H         5 CUB7        0.0000 
     56 CZ          7.1969   33.1757   56.7743 C.ar      3 PHE5        0.0000 
     57 O           3.6447   31.5177   59.4452 O.2       2 ALA2        0.0000 
     58 DU          4.6912   31.6243   58.3759 H         5 CUB7        0.0000 
     59 DU          5.7377   31.7308   57.3065 H         5 CUB7        0.0000 
     60 CZ          6.7842   31.8374   56.2371 C.ar      3 PHE5        0.0000 
     61 OG          4.2785   30.2860   57.8387 O.2       1 SER1        0.0000 
     62 DU          5.3250   30.3925   56.7693 H         5 CUB7        0.0000 
     63 CZ          6.3715   30.4991   55.6999 C.ar      3 PHE5        0.0000 
     64 DU          4.9123   29.0542   56.2321 H         5 CUB7        0.0000 
     65 CZ          5.9588   29.1607   55.1627 C.ar      3 PHE5        0.0000 
     66 CZ          7.0053   29.2673   54.0934 C.ar      3 PHE5        0.0000 
     67 OG          6.5926   27.9290   53.5562 O.2       1 SER1        0.0000 
     68 N          11.1863   43.4261   57.4916 N.2       2 ALA2        0.0000 
     69 O           9.7272   41.9812   58.0238 O.2       2 ALA2        0.0000 
     70 O           8.2680   40.5363   58.5560 O.2       2 ALA2        0.0000 
     71 O           9.3145   40.6429   57.4866 O.2       2 ALA2        0.0000 
     72 O           7.8553   39.1980   58.0188 O.2       2 ALA2        0.0000 
     73 CZ          8.9018   39.3045   56.9494 C.ar      3 PHE5        0.0000 
     74 N           7.4426   37.8597   57.4816 N.2       2 ALA2        0.0000 
     75 CZ          8.4891   37.9662   56.4122 C.ar      3 PHE5        0.0000 
     76 N           7.0300   36.5213   56.9444 N.2       2 ALA2        0.0000 
     77 CZ          8.0764   36.6279   55.8750 C.ar      3 PHE5        0.0000 
     78 CZ          6.6173   35.1830   56.4072 C.ar      3 PHE5        0.0000 
     79 O           4.1116   33.6316   58.0087 O.2       2 ALA2        0.0000 
     80 N           5.1581   33.7381   56.9393 N.2       2 ALA2        0.0000 
     81 CZ          6.2046   33.8447   55.8700 C.ar      3 PHE5        0.0000 
     82 O           3.6990   32.2933   57.4715 O.2       2 ALA2        0.0000 
     83 DU          4.7454   32.3998   56.4021 H         5 CUB7        0.0000 
     84 CZ          5.7919   32.5064   55.3328 C.ar      3 PHE5        0.0000 
     85 O           3.2863   30.9549   56.9343 O.2       2 ALA2        0.0000 
     86 DU          4.3327   31.0615   55.8649 H         5 CUB7        0.0000 
     87 DU          5.3792   31.1680   54.7956 H         5 CUB7        0.0000 
     88 CZ          6.4257   31.2746   53.7262 C.ar      3 PHE5        0.0000 
     89 N           2.8736   29.6166   56.3971 N.2       2 ALA2        0.0000 
     90 DU          3.9201   29.7232   55.3277 H         5 CUB7        0.0000 
     91 CZ          4.9665   29.8297   54.2584 C.ar      3 PHE5        0.0000 
     92 CZ          6.0130   29.9363   53.1890 C.ar      3 PHE5        0.0000 
     93 CA          2.4609   28.2783   55.8599 C.3       4 GLY6        0.0000 
     94 CA          3.5074   28.3848   54.7905 C.3       4 GLY6        0.0000 
     95 CZ          4.5539   28.4914   53.7212 C.ar      3 PHE5        0.0000 
     96 CA          3.0947   27.0465   54.2533 C.3       4 GLY6        0.0000 
     97 O           8.7349   42.6502   57.1194 O.2       2 ALA2        0.0000 
     98 O           4.1659   34.4071   56.0350 O.2       2 ALA2        0.0000 
     99 O           5.2123   34.5137   54.9656 O.2       2 ALA2        0.0000 
    100 O           3.7532   33.0688   55.4978 O.2       2 ALA2        0.0000 
    101 N           4.7996   33.1754   54.4284 N.2       2 ALA2        0.0000 
    102 N           5.8461   33.2819   53.3591 N.2       2 ALA2        0.0000 
    103 O           3.3405   31.7305   54.9606 O.2       2 ALA2        0.0000 
    104 N           4.3870   31.8370   53.8912 N.2       2 ALA2        0.0000 
    105 CZ          5.4334   31.9436   52.8219 C.ar      3 PHE5        0.0000 
    106 N           1.8813   30.2856   55.4927 N.2       2 ALA2        0.0000 
    107 N           2.9278   30.3922   54.4234 N.2       2 ALA2        0.0000 
    108 CA          3.9743   30.4987   53.3540 C.3       4 GLY6        0.0000 
    109 CA          2.5151   29.0538   53.8862 C.3       4 GLY6        0.0000 
    110 CZ          3.5616   29.1604   52.8168 C.ar      3 PHE5        0.0000 
    111 N           2.7609   33.7378   54.5934 N.2       2 ALA2        0.0000 
    112 N           2.3482   32.3995   54.0562 N.2       2 ALA2        0.0000 
    113 N           3.3947   32.5060   52.9868 N.2       2 ALA2        0.0000 
    114 CA          1.9355   31.0611   53.5190 C.3       4 GLY6        0.0000 
    115 N           1.7686   34.4068   53.6890 N.2       2 ALA2        0.0000 
    116 O           0.3095   32.9619   54.2212 O.2       2 ALA2        0.0000 
    117 CA          1.3560   33.0684   53.1518 C.3       4 GLY6        0.0000 
    118 CA          0.9433   31.7301   52.6146 C.3       4 GLY6        0.0000 
@<TRIPOS>BOND
@<TRIPOS>SUBSTRUCTURE
     1 SER1        1 GROUP   
     2 ALA2        3 GROUP   
     3 PHE5       10 GROUP   
     4 GLY6        7 GROUP   
     5 CUB7        6 GROUP   
@<TRIPOS>SET

