#    Name: 3gjt_ILE_GLU_PRO_ASP_ACE_1_INTS_M
#    Modification time : Tue Mar 25 12:35:47 2014

@<TRIPOS>MOLECULE
3gjt_ILE_GLU_PRO_ASP_ACE_1_INTS_M
   77     0    12     0     0
SMALL
NO_CHARGES


@<TRIPOS>ATOM
      1 O          10.8265   35.8900   60.1155 O.2       1 ALC1        0.0000 
      2 O           9.3090   35.7290   60.1290 O.2       9 ALL1        0.0000 
      3 O          12.3440   36.0510   60.1020 O.2       5 ALP1        0.0000 
      4 CA          9.3325   39.0895   56.3875 C.3       4 GLC5        0.0000 
      5 CA          9.2790   38.1260   58.1640 C.3      12 GLL5        0.0000 
      6 CA          9.3860   40.0530   54.6110 C.3       8 GLP5        0.0000 
      7 CA          8.1300   35.5040   55.2335 C.3       4 GLC5        0.0000 
      8 CA          8.1320   36.5760   56.6100 C.3      12 GLL5        0.0000 
      9 CA          8.1280   34.4320   53.8570 C.3       8 GLP5        0.0000 
     10 CA          8.7590   38.3145   55.6105 C.3       4 GLC5        0.0000 
     11 CA         12.2340   37.8575   59.1670 C.3       4 GLC5        0.0000 
     12 CA         10.3570   38.3680   59.2010 C.3      12 GLL5        0.0000 
     13 CA         14.1110   37.3470   59.1330 C.3       8 GLP5        0.0000 
     14 O           5.6540   35.8585   58.2010 O.2       1 ALC1        0.0000 
     15 O           6.4480   34.6030   58.3590 O.2       9 ALL1        0.0000 
     16 O           4.8600   37.1140   58.0430 O.2       5 ALP1        0.0000 
     17 N           4.6225   35.8775   55.6240 N.am      2 SEC2        0.0000 
     18 N           4.7840   34.5340   56.0570 N.am     10 SEL2        0.0000 
     19 N           4.4610   37.2210   55.1910 N.am      6 SEP2        0.0000 
     20 CA          6.5535   33.3710   54.1020 C.3       4 GLC5        0.0000 
     21 CA          4.9790   32.3100   54.3470 C.3      12 GLL5        0.0000 
     22 CA          5.9940   30.6515   52.1245 C.3       4 GLC5        0.0000 
     23 CA          5.8570   31.1960   53.7960 C.3      12 GLL5        0.0000 
     24 CA          6.1310   30.1070   50.4530 C.3       8 GLP5        0.0000 
     25 CA          6.1095   29.5370   52.9375 C.3       4 GLC5        0.0000 
     26 CA          5.9500   30.2680   54.9560 C.3      12 GLL5        0.0000 
     27 CA          6.2690   28.8060   50.9190 C.3       8 GLP5        0.0000 
     28 CA          7.6145   29.3285   55.4035 C.3       4 GLC5        0.0000 
     29 CA          9.2790   28.3890   55.8510 C.3       8 GLP5        0.0000 
     30 CA          8.1215   30.3605   56.1700 C.3       4 GLC5        0.0000 
     31 CA          6.2200   31.2170   56.1070 C.3      12 GLL5        0.0000 
     32 CA         10.0230   29.5040   56.2330 C.3       8 GLP5        0.0000 
     33 O           3.5965   33.5910   52.4995 O.2       1 ALC1        0.0000 
     34 O           2.9590   32.4380   53.0350 O.2       9 ALL1        0.0000 
     35 O           4.2340   34.7440   51.9640 O.2       5 ALP1        0.0000 
     36 N           0.1050   31.9695   49.8650 N.am      2 SEC2        0.0000 
     37 N           0.0490   31.1890   51.0550 N.am     10 SEL2        0.0000 
     38 N           0.1610   32.7500   48.6750 N.am      6 SEP2        0.0000 
     39 N          -1.1765   30.5195   50.2980 N.am      2 SEC2        0.0000 
     40 N          -2.4020   29.8500   49.5410 N.am      6 SEP2        0.0000 
     41 CA         -0.3420   33.9850   50.7455 C.3       4 GLC5        0.0000 
     42 CA          0.8640   33.5790   52.3900 C.3      12 GLL5        0.0000 
     43 CA         -1.5480   34.3910   49.1010 C.3       8 GLP5        0.0000 
     44 CA          1.8325   34.6375   50.9080 C.3       4 GLC5        0.0000 
     45 CA          2.8010   35.6960   49.4260 C.3       8 GLP5        0.0000 
     46 NZ         -1.4670   33.5865   54.8085 N.4       3 LYC4        0.0000 
     47 NZ         -0.1360   33.4300   54.5620 N.4      11 LYL4        0.0000 
     48 NZ         -3.3880   34.9290   55.1130 N.4       7 LYP4        0.0000 
     49 NZ          0.0300   34.3540   55.7340 N.4       3 LYC4        0.0000 
     50 NZ          0.6820   34.3620   57.7400 N.4       7 LYP4        0.0000 
     51 N          -1.4670   33.5865   54.8085 N.am      2 SEC2        0.0000 
     52 N          -0.1360   33.4300   54.5620 N.am     10 SEL2        0.0000 
     53 N          -2.7980   33.7430   55.0550 N.am      6 SEP2        0.0000 
     54 N           0.0300   34.3540   55.7340 N.am      2 SEC2        0.0000 
     55 N           0.1960   35.2780   56.9060 N.am      6 SEP2        0.0000 
     56 N           0.3385   33.2640   55.9535 N.am      2 SEC2        0.0000 
     57 N           0.8130   33.0980   57.3450 N.am      6 SEP2        0.0000 
     58 NZ         -1.4675   34.5670   54.3185 N.4       3 LYC4        0.0000 
     59 NZ         -0.1370   35.3910   53.5820 N.4      11 LYL4        0.0000 
     60 N          -1.4675   34.5670   54.3185 N.am      2 SEC2        0.0000 
     61 N          -0.1370   35.3910   53.5820 N.am     10 SEL2        0.0000 
     62 N          -1.4355   35.7015   54.1445 N.am      2 SEC2        0.0000 
     63 N          -2.7340   36.0120   54.7070 N.am      6 SEP2        0.0000 
     64 N           0.0765   36.3485   52.5290 N.am      2 SEC2        0.0000 
     65 N           0.2900   37.3060   51.4760 N.am      6 SEP2        0.0000 
     66 N           0.0295   35.3345   55.2440 N.am      2 SEC2        0.0000 
     67 CA         10.2852   36.8640   56.2430 C.3       4 GLC5        0.0000 
     68 CA         11.9910   37.1150   55.2640 C.3       8 GLP5        0.0000 
     69 CA         11.1745   38.3390   57.2598 C.3       4 GLC5        0.0000 
     70 CA         12.5310   38.4310   55.8370 C.3       8 GLP5        0.0000 
     71 CA          7.4174   32.0862   54.5613 C.3       4 GLC5        0.0000 
     72 CA          8.7730   33.1980   53.8810 C.3       8 GLP5        0.0000 
     73 CA          0.1770   31.3633   53.3148 C.3       4 GLC5        0.0000 
     74 CA          1.5460   32.2380   52.7050 C.3      12 GLL5        0.0000 
     75 CA         -0.8510   29.8180   54.0820 C.3       8 GLP5        0.0000 
     76 CA          1.9660   32.2403   51.4477 C.3       4 GLC5        0.0000 
     77 CA          2.7270   31.5720   50.3480 C.3       8 GLP5        0.0000 
@<TRIPOS>BOND
@<TRIPOS>SUBSTRUCTURE
     1 ALC1        1 GROUP        1 X    ALC  0     ROOT ALC X 1
     2 SEC2       17 GROUP        1 X    SEC  0     **** SEC X 2
     3 LYC4       46 GROUP        1 X    LYC  0     **** LYC X 4
     4 GLC5        4 GROUP        1 X    GLC  0     **** GLC X 6
     5 ALP1        3 GROUP        1 Y    ALP  0     ROOT ALP Y 8
     6 SEP2       19 GROUP        1 Y    SEP  0     **** SEP Y 9
     7 LYP4       48 GROUP        1 Y    LYP  0     **** LYP Y 11
     8 GLP5        6 GROUP        1 Y    GLP  0     **** GLP Y 13
     9 ALL1        2 GROUP        1 Z    ALL  0     ROOT ALL Z 15
    10 SEL2       18 GROUP        1 Z    SEL  0     **** SEL Z 16
    11 LYL4       47 GROUP        1 Z    LYL  0     **** LYL Z 18
    12 GLL5        5 GROUP        1 Z    GLL  0     **** GLL Z 20
@<TRIPOS>SET

