#    Name: 3gjt_ILE_GLU_PRO_ASP_ACE_1_ligand
#    Modification time : Tue Mar 25 12:35:47 2014

@<TRIPOS>MOLECULE
3gjt_ILE_GLU_PRO_ASP_ACE_1_ligand
   66    66     5     0     0
SMALL
NO_CHARGES


@<TRIPOS>ATOM
      1 N           9.3090   35.7290   60.1290 N.am      1 ILE2        0.0000
      2 CA          8.3560   35.9390   59.0490 C.3       1 ILE2        0.0000
      3 C           7.7530   34.6020   58.6250 C.2       1 ILE2        0.0000
      4 O           8.4480   33.5930   58.5440 O.2       1 ILE2        0.0000
      5 CB          9.0270   36.6500   57.8340 C.3       1 ILE2        0.0000
      6 CG1         9.2790   38.1260   58.1640 C.3       1 ILE2        0.0000
      7 CG2         8.1320   36.5760   56.6100 C.3       1 ILE2        0.0000
      8 CD1        10.3570   38.3680   59.2010 C.3       1 ILE2        0.0000
      9 HNCA       10.3115   35.7925   59.8740 H         1 ILE2        0.0000
     10 HA          7.5417   36.5789   59.3863 H         1 ILE2        0.0000
     11 HB          9.9594   36.1745   57.6282 H         1 ILE2        0.0000
     12 HG12        8.3300   38.5744   58.5140 H         1 ILE2        0.0000
     13 HG13        9.5480   38.6537   57.2294 H         1 ILE2        0.0000
     14 HG21        8.5441   37.0308   55.8205 H         1 ILE2        0.0000
     15 HG22        7.9484   35.6306   56.3408 H         1 ILE2        0.0000
     16 HG23        7.2466   37.0123   56.7704 H         1 ILE2        0.0000
     17 HD11       11.2425   38.0079   58.9073 H         1 ILE2        0.0000
     18 HD12       10.4834   39.3428   59.3848 H         1 ILE2        0.0000
     19 HD13       10.1378   37.9313   60.0735 H         1 ILE2        0.0000
     20 N           6.4480   34.6030   58.3590 N.am      2 GLU3        0.0000
     21 CA          5.7360   33.3980   57.9560 C.3       2 GLU3        0.0000
     22 C           5.2580   33.4860   56.5050 C.2       2 GLU3        0.0000
     23 O           4.7840   34.5340   56.0570 O.2       2 GLU3        0.0000
     24 CB          4.5380   33.1730   58.8880 C.3       2 GLU3        0.0000
     25 CG          4.9120   32.8810   60.3430 C.3       2 GLU3        0.0000
     26 CD          3.7040   32.8500   61.2810 C.2       2 GLU3        0.0000
     27 OE1         2.7340   32.1150   60.9860 O.co2     2 GLU3        0.0000
     28 OE2         3.7300   33.5550   62.3180 O.co2     2 GLU3        0.0000
     29 HNCA        5.8691   35.4697   58.4263 H         2 GLU3        0.0000
     30 HA          6.3841   32.5302   58.0448 H         2 GLU3        0.0000
     31 HB2         3.9378   32.3330   58.4976 H         2 GLU3        0.0000
     32 HB3         3.8920   34.0674   58.8575 H         2 GLU3        0.0000
     33 HG2         5.6161   33.6486   60.6918 H         2 GLU3        0.0000
     34 HG3         5.4277   31.9123   60.3918 H         2 GLU3        0.0000
     35 N           5.3930   32.3850   55.7520 N.am      3 PRO4        0.0000
     36 CA          4.9790   32.3100   54.3470 C.3       3 PRO4        0.0000
     37 C           3.4950   32.0050   54.1690 C.2       3 PRO4        0.0000
     38 O           2.8600   31.3900   55.0270 O.2       3 PRO4        0.0000
     39 CB          5.8570   31.1960   53.7960 C.3       3 PRO4        0.0000
     40 CG          5.9500   30.2680   54.9560 C.3       3 PRO4        0.0000
     41 CD          6.2200   31.2170   56.1070 C.3       3 PRO4        0.0000
     42 HA          5.2412   33.2147   53.8405 H         3 PRO4        0.0000
     43 HB2         6.8100   31.5872   53.5493 H         3 PRO4        0.0000
     44 HB3         5.3667   30.7311   52.9802 H         3 PRO4        0.0000
     45 HG2         6.7698   29.6052   54.8417 H         3 PRO4        0.0000
     46 HG3         5.0267   29.7709   55.1140 H         3 PRO4        0.0000
     47 HD2         5.8876   30.7747   57.0138 H         3 PRO4        0.0000
     48 HD3         7.2517   31.4693   56.1212 H         3 PRO4        0.0000
     49 N           2.9590   32.4380   53.0350 N.am      4 ASP5        0.0000
     50 CA          1.5460   32.2380   52.7050 C.3       4 ASP5        0.0000
     51 C           1.4020   31.3080   51.4990 C.2       4 ASP5        0.0000
     52 O           0.0490   31.1890   51.0550 O.2       4 ASP5        0.0000
     53 CB          0.8640   33.5790   52.3900 C.3       4 ASP5        0.0000
     54 CG          0.1480   34.1750   53.5980 C.2       4 ASP5        0.0000
     55 OD1        -0.1360   33.4300   54.5620 O.co2     4 ASP5        0.0000
     56 OD2        -0.1370   35.3910   53.5820 O.co2     4 ASP5        0.0000
     57 HNCA        3.5179   32.9475   52.3122 H         4 ASP5        0.0000
     58 HA          1.0220   31.7880   53.5381 H         4 ASP5        0.0000
     59 HB2         0.1410   33.4261   51.5802 H         4 ASP5        0.0000
     60 HB3         1.6224   34.2861   52.0339 H         4 ASP5        0.0000
     61 C           8.8970   35.4710   61.3680 C.2       5 ACE1        0.0000
     62 O           7.7010   35.3950   61.6760 O.2       5 ACE1        0.0000
     63 CH3         9.9820   35.2720   62.4040 C.3       5 ACE1        0.0000
     64 H          10.5810   34.5057   62.1719 H         5 ACE1        0.0000
     65 H          10.5627   36.0812   62.4938 H         5 ACE1        0.0000
     66 H           9.6011   35.0827   63.3090 H         5 ACE1        0.0000
@<TRIPOS>BOND
     1    2    1 1
     2    9    1 1
     3    3    2 1
     4    5    2 1
     5   10    2 1
     6    4    3 2
     7    6    5 1
     8    7    5 1
     9   11    5 1
    10    8    6 1
    11   12    6 1
    12   13    6 1
    13   14    7 1
    14   15    7 1
    15   16    7 1
    16   17    8 1
    17   18    8 1
    18   19    8 1
    19   21   20 1
    20   29   20 1
    21   22   21 1
    22   24   21 1
    23   30   21 1
    24   23   22 2
    25   25   24 1
    26   31   24 1
    27   32   24 1
    28   26   25 1
    29   33   25 1
    30   34   25 1
    31   27   26 ar
    32   28   26 ar
    33   36   35 1
    34   41   35 1
    35   37   36 1
    36   39   36 1
    37   42   36 1
    38   38   37 2
    39   40   39 1
    40   43   39 1
    41   44   39 1
    42   41   40 1
    43   45   40 1
    44   46   40 1
    45   47   41 1
    46   48   41 1
    47   50   49 1
    48   57   49 1
    49   51   50 1
    50   53   50 1
    51   58   50 1
    52   52   51 2
    53   54   53 1
    54   59   53 1
    55   60   53 1
    56   55   54 ar
    57   56   54 ar
    58   62   61 2
    59   63   61 1
    60   64   63 1
    61   65   63 1
    62   66   63 1
    63   61    1 1 
    64   20    3 am
    65   35   22 am
    66   49   37 am
@<TRIPOS>SUBSTRUCTURE
     1 ILE2        1 RESIDUE
     2 GLU3       20 RESIDUE
     3 PRO4       35 RESIDUE
     4 ASP5       49 RESIDUE
     5 ACE1       61 GROUP
@<TRIPOS>SET

