#    Name: 2bfy_H1N_2_INTS_M
#    Modification time : Mon Mar 24 20:55:28 2014

@<TRIPOS>MOLECULE
2bfy_H1N_2_INTS_M
   62     0     9     0     0
SMALL
NO_CHARGES


@<TRIPOS>ATOM
      1 CA         37.9670   52.2665   56.7125 C.3       3 GLC5        0.0000 
      2 CA         39.9460   52.6510   57.5270 C.3       9 GLL5        0.0000 
      3 CA         35.9880   51.8820   55.8980 C.3       6 GLP5        0.0000 
      4 CA         40.1410   50.1765   61.1475 C.3       3 GLC5        0.0000 
      5 CA         38.4110   50.9680   60.0830 C.3       9 GLL5        0.0000 
      6 CA         41.8710   49.3850   62.2120 C.3       6 GLP5        0.0000 
      7 N          37.5030   47.4490   60.1230 N.am      2 SEC2        0.0000 
      8 N          38.1360   48.6630   60.2630 N.am      8 SEL2        0.0000 
      9 N          36.8700   46.2350   59.9830 N.am      5 SEP2        0.0000 
     10 O          36.0910   49.0415   62.1290 O.2       1 ALC1        0.0000 
     11 O          36.8920   50.1350   61.4720 O.2       7 ALL1        0.0000 
     12 O          35.2900   47.9480   62.7860 O.2       4 ALP1        0.0000 
     13 CA         37.6525   50.5300   63.0865 C.3       3 GLC5        0.0000 
     14 CA         36.7690   51.4650   61.5040 C.3       9 GLL5        0.0000 
     15 CA         38.5360   49.5950   64.6690 C.3       6 GLP5        0.0000 
     16 N          36.6905   58.9655   60.7235 N.am      2 SEC2        0.0000 
     17 N          35.8310   57.8230   60.1420 N.am      8 SEL2        0.0000 
     18 N          37.5500   60.1080   61.3050 N.am      5 SEP2        0.0000 
     19 N          35.4100   57.8325   63.2990 N.am      2 SEC2        0.0000 
     20 N          35.7170   57.0440   62.4830 N.am      8 SEL2        0.0000 
     21 N          35.1030   58.6210   64.1150 N.am      5 SEP2        0.0000 
     22 CA         47.5660   46.3687   60.1365 C.3       3 GLC5        0.0000 
     23 CA         45.8480   46.2230   58.7460 C.3       9 GLL5        0.0000 
     24 CA         48.6150   46.7220   61.8350 C.3       6 GLP5        0.0000 
     25 CA         44.9315   47.8807   60.0722 C.3       3 GLC5        0.0000 
     26 CA         44.2760   48.9120   61.7520 C.3       6 GLP5        0.0000 
     27 CA         42.4206   49.8389   59.4960 C.3       3 GLC5        0.0000 
     28 CA         40.9700   49.5930   57.9340 C.3       9 GLL5        0.0000 
     29 CA         43.0790   49.7170   61.3520 C.3       6 GLP5        0.0000 
     30 CA         40.1849   48.7500   56.0145 C.3       3 GLC5        0.0000 
     31 CA         39.0420   48.6540   54.5060 C.3       6 GLP5        0.0000 
     32 CA         40.9320   53.9220   61.5080 C.3       3 GLC5        0.0000 
     33 CA         40.7240   53.0730   59.7660 C.3       9 GLL5        0.0000 
     34 CA         40.8760   54.1610   63.4570 C.3       6 GLP5        0.0000 
     35 CA         42.0975   52.3450   60.3876 C.3       3 GLC5        0.0000 
     36 CA         41.2520   54.2930   59.3520 C.3       9 GLL5        0.0000 
     37 CA         43.3710   51.2140   61.4430 C.3       6 GLP5        0.0000 
     38 CA         42.9780   54.8773   59.3203 C.3       3 GLC5        0.0000 
     39 CA         44.7660   55.2620   59.9530 C.3       6 GLP5        0.0000 
     40 CA         39.4635   53.5493   55.3675 C.3       3 GLC5        0.0000 
     41 CA         40.4740   53.8680   57.1110 C.3       9 GLL5        0.0000 
     42 CA         38.7170   53.8390   53.4160 C.3       6 GLP5        0.0000 
     43 CA         36.6723   51.2850   59.2825 C.3       3 GLC5        0.0000 
     44 CA         37.7120   52.0240   60.6470 C.3       9 GLL5        0.0000 
     45 CA         35.2830   51.0740   58.2000 C.3       6 GLP5        0.0000 
     46 CA         38.5033   54.5078   61.9428 C.3       3 GLC5        0.0000 
     47 CA         37.6790   53.3920   60.3630 C.3       9 GLL5        0.0000 
     48 CA         39.8260   55.2190   63.2610 C.3       6 GLP5        0.0000 
     49 CA         38.8186   52.1393   62.3137 C.3       3 GLC5        0.0000 
     50 CA         40.2220   52.7980   63.6930 C.3       6 GLP5        0.0000 
     51 CA         35.3205   53.1420   63.8662 C.3       3 GLC5        0.0000 
     52 CA         35.7980   52.2870   62.0710 C.3       9 GLL5        0.0000 
     53 CA         34.8700   53.3180   65.8200 C.3       6 GLP5        0.0000 
     54 CA         34.5309   51.7117   61.5429 C.3       3 GLC5        0.0000 
     55 CA         35.7440   53.6450   61.7540 C.3       9 GLL5        0.0000 
     56 CA         33.0480   50.6630   61.3150 C.3       6 GLP5        0.0000 
     57 CA         32.9952   54.1435   59.1595 C.3       3 GLC5        0.0000 
     58 CA         33.9680   55.4180   59.2550 C.3       9 GLL5        0.0000 
     59 CA         31.9770   52.6790   58.3240 C.3       6 GLP5        0.0000 
     60 CA         32.3137   56.6195   59.3210 C.3       3 GLC5        0.0000 
     61 CA         30.6140   57.6310   58.6470 C.3       6 GLP5        0.0000 
     62 CA         35.8279   51.9362   59.8442 C.3       3 GLC5        0.0000 
@<TRIPOS>BOND
@<TRIPOS>SUBSTRUCTURE
     1 ALC1       10 GROUP        1 X    ALC  0     ROOT ALC X 1
     2 SEC2        7 GROUP        1 X    SEC  0     **** SEC X 2
     3 GLC5        1 GROUP        1 X    GLC  0     **** GLC X 6
     4 ALP1       12 GROUP        1 Y    ALP  0     ROOT ALP Y 8
     5 SEP2        9 GROUP        1 Y    SEP  0     **** SEP Y 9
     6 GLP5        3 GROUP        1 Y    GLP  0     **** GLP Y 13
     7 ALL1       11 GROUP        1 Z    ALL  0     ROOT ALL Z 15
     8 SEL2        8 GROUP        1 Z    SEL  0     **** SEL Z 16
     9 GLL5        2 GROUP        1 Z    GLL  0     **** GLL Z 20
@<TRIPOS>SET

