#    Name: 2bfy_H1N_2_ligand
#    Modification time : Mon Mar 24 20:55:28 2014

@<TRIPOS>MOLECULE
2bfy_H1N_2_ligand
   70    74     1     0     0
SMALL
NO_CHARGES


@<TRIPOS>ATOM
      1 CAJ        46.4360   46.8630   55.9770 C.3       1 H1N1357     0.0000 
      2 CAL        47.0240   45.6040   56.6220 C.3       1 H1N1357     0.0000 
      3 CAW        47.1860   45.8080   58.1300 C.3       1 H1N1357     0.0000 
      4 CAV        45.8480   46.2230   58.7460 C.3       1 H1N1357     0.0000 
      5 CAK        45.3260   47.4760   58.0390 C.3       1 H1N1357     0.0000 
      6 NAI        45.1480   47.2080   56.6010 N.4       1 H1N1357     0.0000 
      7 CAH        44.5980   48.3880   55.9160 C.3       1 H1N1357     0.0000 
      8 CAG        43.2750   48.8300   56.5490 C.ar      1 H1N1357     0.0000 
      9 CAS        43.1300   50.1380   57.0030 C.ar      1 H1N1357     0.0000 
     10 CAR        41.9790   50.5190   57.6890 C.ar      1 H1N1357     0.0000 
     11 CAF        42.2580   47.9050   56.7660 C.ar      1 H1N1357     0.0000 
     12 CAE        41.1130   48.2930   57.4580 C.ar      1 H1N1357     0.0000 
     13 CAQ        40.9700   49.5930   57.9340 C.ar      1 H1N1357     0.0000 
     14 NAP        39.8920   49.8680   58.6770 N.2       1 H1N1357     0.0000 
     15 CAO        39.5390   51.0190   59.2510 C.2       1 H1N1357     0.0000 
     16 CAN        40.0680   52.2450   58.8590 C.ar      1 H1N1357     0.0000 
     17 CAM        40.7240   53.0730   59.7660 C.ar      1 H1N1357     0.0000 
     18 CAC        41.2520   54.2930   59.3520 C.ar      1 H1N1357     0.0000 
     19 CAA        41.1280   54.6920   58.0230 C.ar      1 H1N1357     0.0000 
     20 CAB        40.4740   53.8680   57.1110 C.ar      1 H1N1357     0.0000 
     21 CAD        39.9460   52.6510   57.5270 C.ar      1 H1N1357     0.0000 
     22 CBD        38.4110   50.9680   60.0830 C.3       1 H1N1357     0.0000 
     23 CBC        37.7120   52.0240   60.6470 C.ar      1 H1N1357     0.0000 
     24 CBB        37.6790   53.3920   60.3630 C.ar      1 H1N1357     0.0000 
     25 CBJ        37.8560   49.8140   60.6120 C.2       1 H1N1357     0.0000 
     26 OBK        38.1360   48.6630   60.2630 O.2       1 H1N1357     0.0000 
     27 NBI        36.8920   50.1350   61.4720 N.am      1 H1N1357     0.0000 
     28 CBH        36.7690   51.4650   61.5040 C.ar      1 H1N1357     0.0000 
     29 CBG        35.7980   52.2870   62.0710 C.ar      1 H1N1357     0.0000 
     30 CBF        35.7440   53.6450   61.7540 C.ar      1 H1N1357     0.0000 
     31 CBA        36.6820   54.2010   60.8860 C.ar      1 H1N1357     0.0000 
     32 NAZ        36.7960   55.5170   60.7060 N.pl3     1 H1N1357     0.0000 
     33 SAY        35.6590   56.6360   61.0420 S.o2      1 H1N1357     0.0000 
     34 OBE        35.8310   57.8230   60.1420 O.2       1 H1N1357     0.0000 
     35 OAU        35.7170   57.0440   62.4830 O.2       1 H1N1357     0.0000 
     36 CAX        34.0590   55.7980   60.7350 C.3       1 H1N1357     0.0000 
     37 CAT        33.9680   55.4180   59.2550 C.3       1 H1N1357     0.0000 
     38 H          46.3089   46.6736   54.9078 H         1 H1N1357     0.0000 
     39 H          47.1545   47.6781   56.0977 H         1 H1N1357     0.0000 
     40 H          47.9940   45.3956   56.1815 H         1 H1N1357     0.0000 
     41 H          46.3585   44.7654   56.4424 H         1 H1N1357     0.0000 
     42 H          47.9205   46.5849   58.3103 H         1 H1N1357     0.0000 
     43 H          47.5180   44.8811   58.5840 H         1 H1N1357     0.0000 
     44 H          45.9879   46.4365   59.7982 H         1 H1N1357     0.0000 
     45 H          45.1328   45.4190   58.6262 H         1 H1N1357     0.0000 
     46 H          46.0435   48.2837   58.1948 H         1 H1N1357     0.0000 
     47 H          44.3778   47.7610   58.4984 H         1 H1N1357     0.0000 
     48 H          44.4622   46.3750   56.4722 H         1 H1N1357     0.0000 
     49 H          44.4152   48.1699   54.8570 H         1 H1N1357     0.0000 
     50 H          45.3007   49.2281   55.9689 H         1 H1N1357     0.0000 
     51 H          43.8757   50.8264   56.8314 H         1 H1N1357     0.0000 
     52 H          41.8753   51.4899   58.0157 H         1 H1N1357     0.0000 
     53 H          42.3503   46.9454   56.4195 H         1 H1N1357     0.0000 
     54 H          40.3582   47.6044   57.6202 H         1 H1N1357     0.0000 
     55 H          40.8193   52.7811   60.7497 H         1 H1N1357     0.0000 
     56 H          41.7338   54.9001   60.0273 H         1 H1N1357     0.0000 
     57 H          41.5178   55.5909   57.7174 H         1 H1N1357     0.0000 
     58 H          40.3819   54.1604   56.1295 H         1 H1N1357     0.0000 
     59 H          39.4613   52.0424   56.8520 H         1 H1N1357     0.0000 
     60 H          37.4983   50.9192   59.0019 H         1 H1N1357     0.0000 
     61 H          38.4083   53.8005   59.7557 H         1 H1N1357     0.0000 
     62 H          36.3618   49.5058   61.9936 H         1 H1N1357     0.0000 
     63 H          35.1124   51.8898   62.7310 H         1 H1N1357     0.0000 
     64 H          35.0089   54.2371   62.1629 H         1 H1N1357     0.0000 
     65 H          37.6537   55.9870   60.3179 H         1 H1N1357     0.0000 
     66 H          33.3634   56.5348   61.0322 H         1 H1N1357     0.0000 
     67 H          34.1148   54.9699   61.3878 H         1 H1N1357     0.0000 
     68 H          34.1842   56.1914   58.6590 H         1 H1N1357     0.0000 
     69 H          34.6025   54.6813   59.0210 H         1 H1N1357     0.0000 
     70 H          33.0511   55.1047   59.0077 H         1 H1N1357     0.0000 
@<TRIPOS>BOND
     1    2    1 1    
     2    6    1 1    
     3   38    1 1    
     4   39    1 1    
     5    3    2 1    
     6   40    2 1    
     7   41    2 1    
     8    4    3 1    
     9   42    3 1    
    10   43    3 1    
    11    5    4 1    
    12   44    4 1    
    13   45    4 1    
    14    6    5 1    
    15   46    5 1    
    16   47    5 1    
    17    7    6 1    
    18   48    6 1    
    19    8    7 1    
    20   49    7 1    
    21   50    7 1    
    22    9    8 ar   
    23   11    8 ar   
    24   10    9 ar   
    25   51    9 1    
    26   13   10 ar   
    27   52   10 1    
    28   12   11 ar   
    29   53   11 1    
    30   13   12 ar   
    31   54   12 1    
    32   14   13 1    
    33   15   14 2    
    34   16   15 1    
    35   22   15 1    
    36   17   16 ar   
    37   21   16 ar   
    38   18   17 ar   
    39   55   17 1    
    40   19   18 ar   
    41   56   18 1    
    42   20   19 ar   
    43   57   19 1    
    44   21   20 ar   
    45   58   20 1    
    46   59   21 1    
    47   23   22 1    
    48   25   22 1    
    49   60   22 1    
    50   24   23 ar   
    51   28   23 ar   
    52   31   24 ar   
    53   61   24 1    
    54   26   25 2    
    55   27   25 am   
    56   28   27 1    
    57   62   27 1    
    58   29   28 ar   
    59   30   29 ar   
    60   63   29 1    
    61   31   30 ar   
    62   64   30 1    
    63   32   31 1    
    64   33   32 1    
    65   65   32 1    
    66   34   33 2    
    67   35   33 2    
    68   36   33 1    
    69   37   36 1    
    70   66   36 1    
    71   67   36 1    
    72   68   37 1    
    73   69   37 1    
    74   70   37 1    
@<TRIPOS>SUBSTRUCTURE
     1 H1N1357     1 GROUP   
@<TRIPOS>SET

