#    Name: 2yy7_NAD_1_INTS_M
#    Modification time : Tue Mar 25 09:50:17 2014

@<TRIPOS>MOLECULE
2yy7_NAD_1_INTS_M
  111     0     9     0     0
SMALL
NO_CHARGES


@<TRIPOS>ATOM
      1 N          44.7960   23.5365   48.2955 N.am      2 SEC2        0.0000 
      2 N          44.8720   23.2540   46.9060 N.am      8 SEL2        0.0000 
      3 N          44.7200   23.8190   49.6850 N.am      5 SEP2        0.0000 
      4 CA         40.1510   19.2005   47.9310 C.3       3 GLC5        0.0000 
      5 CA         41.6730   19.7110   46.7970 C.3       9 GLL5        0.0000 
      6 CA         38.6290   18.6900   49.0650 C.3       6 GLP5        0.0000 
      7 N          44.5715   18.1230   48.1135 N.am      2 SEC2        0.0000 
      8 N          43.2110   18.4460   48.2580 N.am      8 SEL2        0.0000 
      9 N          45.9320   17.8000   47.9690 N.am      5 SEP2        0.0000 
     10 O          42.2500   17.7185   48.8425 O.2       1 ALC1        0.0000 
     11 O          43.2110   18.4460   48.2580 O.2       7 ALL1        0.0000 
     12 O          41.2890   16.9910   49.4270 O.2       4 ALP1        0.0000 
     13 N          44.4130   16.0325   46.7910 N.am      2 SEC2        0.0000 
     14 N          43.1460   16.4030   46.4270 N.am      8 SEL2        0.0000 
     15 N          45.6800   15.6620   47.1550 N.am      5 SEP2        0.0000 
     16 O          42.5495   15.7550   47.4615 O.2       1 ALC1        0.0000 
     17 O          43.1460   16.4030   46.4270 O.2       7 ALL1        0.0000 
     18 O          41.9530   15.1070   48.4960 O.2       4 ALP1        0.0000 
     19 CA         39.8270   18.1530   47.5785 C.3       3 GLC5        0.0000 
     20 CA         41.0250   17.6160   46.0920 C.3       9 GLL5        0.0000 
     21 CA         39.0185   18.1645   45.6215 C.3       3 GLC5        0.0000 
     22 CA         37.0120   18.7130   45.1510 C.3       6 GLP5        0.0000 
     23 CA         39.1905   13.3550   44.6945 C.3       3 GLC5        0.0000 
     24 CA         38.0700   14.5960   43.7310 C.3       9 GLL5        0.0000 
     25 CA         40.3110   12.1140   45.6580 C.3       6 GLP5        0.0000 
     26 CA         36.9190   12.8700   44.3085 C.3       3 GLC5        0.0000 
     27 CA         35.7680   11.1440   44.8860 C.3       6 GLP5        0.0000 
     28 CA         36.0845   15.1315   44.0770 C.3       3 GLC5        0.0000 
     29 CA         34.0990   15.6670   44.4230 C.3       6 GLP5        0.0000 
     30 O          36.9175   12.8355   42.3485 O.2       1 ALC1        0.0000 
     31 O          37.8610   14.0170   42.5680 O.2       7 ALL1        0.0000 
     32 O          35.9740   11.6540   42.1290 O.2       4 ALP1        0.0000 
     33 N          36.0330   13.7470   44.6990 N.am      2 SEC2        0.0000 
     34 N          37.3640   14.1950   44.8350 N.am      8 SEL2        0.0000 
     35 N          34.7020   13.2990   44.5630 N.am      5 SEP2        0.0000 
     36 CA         36.0380   15.8820   46.9710 C.3       3 GLC5        0.0000 
     37 CA         37.6380   14.7200   46.0890 C.3       9 GLL5        0.0000 
     38 CA         34.4380   17.0440   47.8530 C.3       6 GLP5        0.0000 
     39 CA         38.4680   14.5245   47.9925 C.3       3 GLC5        0.0000 
     40 CA         39.2980   14.3290   49.8960 C.3       6 GLP5        0.0000 
     41 CA         38.9745   13.4170   45.8735 C.3       3 GLC5        0.0000 
     42 CA         36.4165   13.8055   47.6115 C.3       3 GLC5        0.0000 
     43 CA         35.1950   12.8910   49.1340 C.3       6 GLP5        0.0000 
     44 CA         36.7030   12.9320   45.4875 C.3       3 GLC5        0.0000 
     45 CA         35.8685   15.1935   45.2560 C.3       3 GLC5        0.0000 
     46 CA         37.3250   16.7165   45.6200 C.3       3 GLC5        0.0000 
     47 N          39.3625   14.3735   47.0960 N.am      2 SEC2        0.0000 
     48 N          38.6550   15.6390   46.2620 N.am      8 SEL2        0.0000 
     49 N          40.0700   13.1080   47.9300 N.am      5 SEP2        0.0000 
     50 N          42.5610   25.3415   49.4060 N.am      2 SEC2        0.0000 
     51 N          42.1270   24.8510   48.1060 N.am      8 SEL2        0.0000 
     52 N          42.9950   25.8320   50.7060 N.am      5 SEP2        0.0000 
     53 CA         38.4770   24.1410   47.6495 C.3       3 GLC5        0.0000 
     54 CA         39.7450   25.2430   46.5600 C.3       9 GLL5        0.0000 
     55 CA         37.2090   23.0390   48.7390 C.3       6 GLP5        0.0000 
     56 CA         37.4550   24.4245   46.6460 C.3       3 GLC5        0.0000 
     57 CA         38.5770   25.9310   45.8010 C.3       9 GLL5        0.0000 
     58 CA         36.3330   22.9180   47.4910 C.3       6 GLP5        0.0000 
     59 CA         38.0805   24.1285   42.8810 C.3       3 GLC5        0.0000 
     60 CA         38.5380   25.6010   44.3060 C.3       9 GLL5        0.0000 
     61 CA         37.6230   22.6560   41.4560 C.3       6 GLP5        0.0000 
     62 N          36.4605   26.2195   42.8105 N.am      2 SEC2        0.0000 
     63 N          37.1780   25.5780   43.8830 N.am      8 SEL2        0.0000 
     64 N          35.7430   26.8610   41.7380 N.am      5 SEP2        0.0000 
     65 CA         40.8800   25.8645   43.0050 C.3       3 GLC5        0.0000 
     66 CA         39.1930   26.7990   43.6610 C.3       9 GLL5        0.0000 
     67 CA         42.5670   24.9300   42.3490 C.3       6 GLP5        0.0000 
     68 CA         39.5105   27.6430   41.6320 C.3       3 GLC5        0.0000 
     69 CA         39.8280   28.4870   39.6030 C.3       6 GLP5        0.0000 
     70 CA         37.7410   27.2150   42.1185 C.3       3 GLC5        0.0000 
     71 CA         36.2890   27.6310   40.5760 C.3       6 GLP5        0.0000 
     72 N          39.3015   27.8405   41.6255 N.am      2 SEC2        0.0000 
     73 N          38.7970   26.8560   42.3110 N.am      8 SEL2        0.0000 
     74 N          39.8060   28.8250   40.9400 N.am      5 SEP2        0.0000 
     75 N          37.2700   26.8585   42.0245 N.am      2 SEC2        0.0000 
     76 CA         39.4970   28.1695   46.5440 C.3       3 GLC5        0.0000 
     77 CA         38.7100   27.9460   44.5490 C.3       9 GLL5        0.0000 
     78 CA         40.2840   28.3930   48.5390 C.3       6 GLP5        0.0000 
     79 CA         36.9925   27.7465   45.3815 C.3       3 GLC5        0.0000 
     80 CA         35.2750   27.5470   46.2140 C.3       6 GLP5        0.0000 
     81 CA         38.2850   29.4760   45.8475 C.3       3 GLC5        0.0000 
     82 CA         37.8600   31.0060   47.1460 C.3       6 GLP5        0.0000 
     83 N          44.3360   32.4515   45.8260 N.am      2 SEC2        0.0000 
     84 N          43.8900   31.2330   45.2180 N.am      8 SEL2        0.0000 
     85 N          44.7820   33.6700   46.4340 N.am      5 SEP2        0.0000 
     86 O          44.7255   28.7080   46.9510 O.2       1 ALC1        0.0000 
     87 O          43.5480   29.0860   46.2110 O.2       7 ALL1        0.0000 
     88 O          45.9030   28.3300   47.6910 O.2       4 ALP1        0.0000 
     89 CA         43.0274   20.6032   48.1653 C.3       3 GLC5        0.0000 
     90 CA         41.9460   20.9650   46.0030 C.3       9 GLL5        0.0000 
     91 CA         43.6890   21.6360   49.6830 C.3       6 GLP5        0.0000 
     92 CA         40.3245   14.4067   44.8550 C.3       3 GLC5        0.0000 
     93 CA         39.3590   16.0240   45.1480 C.3       9 GLL5        0.0000 
     94 CA         41.4320   13.0320   45.1970 C.3       6 GLP5        0.0000 
     95 CA         37.4982   15.9108   42.2127 C.3       3 GLC5        0.0000 
     96 CA         39.0750   15.5390   43.8780 C.3       9 GLL5        0.0000 
     97 CA         36.4240   16.7540   40.6210 C.3       6 GLP5        0.0000 
     98 CA         37.9889   17.1294   44.8136 C.3       3 GLC5        0.0000 
     99 CA         39.7225   26.9900   47.3598 C.3       3 GLC5        0.0000 
    100 CA         36.9162   26.6565   45.6337 C.3       3 GLC5        0.0000 
    101 CA         40.8050   28.9860   46.7095 C.3       3 GLC5        0.0000 
    102 CA         40.9010   29.0320   44.9410 C.3       9 GLL5        0.0000 
    103 CA         42.0225   31.6573   46.3413 C.3       3 GLC5        0.0000 
    104 CA         41.7510   30.1260   44.8190 C.3       9 GLL5        0.0000 
    105 CA         42.5100   32.6070   48.1960 C.3       6 GLP5        0.0000 
    106 CA         38.8777   31.3120   42.2057 C.3       3 GLC5        0.0000 
    107 CA         40.0130   31.3580   43.6600 C.3       9 GLL5        0.0000 
    108 CA         38.1600   31.8130   40.6930 C.3       6 GLP5        0.0000 
    109 CA         39.3295   31.9914   45.0510 C.3       3 GLC5        0.0000 
    110 CA         39.1780   30.2640   43.7770 C.3       9 GLL5        0.0000 
    111 CA         38.7370   33.1890   46.2600 C.3       6 GLP5        0.0000 
@<TRIPOS>BOND
@<TRIPOS>SUBSTRUCTURE
     1 ALC1       10 GROUP        1 X    ALC  0     ROOT ALC X 1
     2 SEC2        1 GROUP        1 X    SEC  0     **** SEC X 2
     3 GLC5        4 GROUP        1 X    GLC  0     **** GLC X 6
     4 ALP1       12 GROUP        1 Y    ALP  0     ROOT ALP Y 8
     5 SEP2        3 GROUP        1 Y    SEP  0     **** SEP Y 9
     6 GLP5        6 GROUP        1 Y    GLP  0     **** GLP Y 13
     7 ALL1       11 GROUP        1 Z    ALL  0     ROOT ALL Z 15
     8 SEL2        2 GROUP        1 Z    SEL  0     **** SEL Z 16
     9 GLL5        5 GROUP        1 Z    GLL  0     **** GLL Z 20
@<TRIPOS>SET

