#    Name: 2yy7_NAD_1_ligand
#    Modification time : Tue Mar 25 09:50:17 2014

@<TRIPOS>MOLECULE
2yy7_NAD_1_ligand
   70    74     1     0     0
SMALL
NO_CHARGES


@<TRIPOS>ATOM
      1 PA         43.7700   22.8230   46.0010 P.3       1 NAD3001     0.0000 
      2 O1A        44.8720   23.2540   46.9060 O.co2     1 NAD3001     0.0000 
      3 O2A        44.1920   22.3700   44.6500 O.co2     1 NAD3001     0.0000 
      4 O5B        42.8180   21.7860   46.7250 O.3       1 NAD3001     0.0000 
      5 C5B        41.9460   20.9650   46.0030 C.3       1 NAD3001     0.0000 
      6 C4B        41.6730   19.7110   46.7970 C.3       1 NAD3001     0.0000 
      7 O4B        40.6410   18.9890   46.1220 O.3       1 NAD3001     0.0000 
      8 C3B        42.9220   18.8030   46.8950 C.3       1 NAD3001     0.0000 
      9 O3B        43.2110   18.4460   48.2580 O.3       1 NAD3001     0.0000 
     10 C2B        42.5580   17.6170   45.9930 C.3       1 NAD3001     0.0000 
     11 O2B        43.1460   16.4030   46.4270 O.3       1 NAD3001     0.0000 
     12 C1B        41.0250   17.6160   46.0920 C.3       1 NAD3001     0.0000 
     13 N9A        40.3840   16.8720   44.9980 N.pl3     1 NAD3001     0.0000 
     14 C8A        40.7390   16.9150   43.6500 C.2       1 NAD3001     0.0000 
     15 N7A        39.9310   16.0790   42.9820 N.2       1 NAD3001     0.0000 
     16 C5A        39.0750   15.5390   43.8780 C.ar      1 NAD3001     0.0000 
     17 C6A        38.0700   14.5960   43.7310 C.ar      1 NAD3001     0.0000 
     18 N6A        37.8610   14.0170   42.5680 N.pl3     1 NAD3001     0.0000 
     19 N1A        37.3640   14.1950   44.8350 N.ar      1 NAD3001     0.0000 
     20 C2A        37.6380   14.7200   46.0890 C.ar      1 NAD3001     0.0000 
     21 N3A        38.6550   15.6390   46.2620 N.ar      1 NAD3001     0.0000 
     22 C4A        39.3590   16.0240   45.1480 C.ar      1 NAD3001     0.0000 
     23 O3         42.7990   24.0710   45.7240 O.3       1 NAD3001     0.0000 
     24 PN         42.4020   25.3040   46.7020 P.3       1 NAD3001     0.0000 
     25 O1N        42.1270   24.8510   48.1060 O.co2     1 NAD3001     0.0000 
     26 O2N        43.3580   26.3980   46.3800 O.co2     1 NAD3001     0.0000 
     27 O5D        40.9850   25.7560   46.0510 O.3       1 NAD3001     0.0000 
     28 C5D        39.7450   25.2430   46.5600 C.3       1 NAD3001     0.0000 
     29 C4D        38.5770   25.9310   45.8010 C.3       1 NAD3001     0.0000 
     30 O4D        38.7260   27.3380   45.8590 O.3       1 NAD3001     0.0000 
     31 C3D        38.5380   25.6010   44.3060 C.3       1 NAD3001     0.0000 
     32 O3D        37.1780   25.5780   43.8830 O.3       1 NAD3001     0.0000 
     33 C2D        39.1930   26.7990   43.6610 C.3       1 NAD3001     0.0000 
     34 O2D        38.7970   26.8560   42.3110 O.3       1 NAD3001     0.0000 
     35 C1D        38.7100   27.9460   44.5490 C.3       1 NAD3001     0.0000 
     36 N1N        39.6230   29.1060   44.4250 N.pl3     1 NAD3001     0.0000 
     37 C2N        40.9010   29.0320   44.9410 C.ar      1 NAD3001     0.0000 
     38 C3N        41.7510   30.1260   44.8190 C.ar      1 NAD3001     0.0000 
     39 C7N        43.1060   30.1200   45.4730 C.2       1 NAD3001     0.0000 
     40 O7N        43.8900   31.2330   45.2180 O.2       1 NAD3001     0.0000 
     41 N7N        43.5480   29.0860   46.2110 N.am      1 NAD3001     0.0000 
     42 C4N        41.3190   31.2890   44.1540 C.ar      1 NAD3001     0.0000 
     43 C5N        40.0130   31.3580   43.6600 C.ar      1 NAD3001     0.0000 
     44 C6N        39.1780   30.2640   43.7770 C.ar      1 NAD3001     0.0000 
     45 H          42.3657   20.6632   45.0325 H         1 NAD3001     0.0000 
     46 H          40.9811   21.4540   45.8055 H         1 NAD3001     0.0000 
     47 H          41.3697   19.9769   47.7889 H         1 NAD3001     0.0000 
     48 H          43.7253   19.3386   46.4171 H         1 NAD3001     0.0000 
     49 H          42.8089   17.8968   44.9906 H         1 NAD3001     0.0000 
     50 H          40.7830   17.1501   47.0532 H         1 NAD3001     0.0000 
     51 H          41.4419   17.4572   43.2948 H         1 NAD3001     0.0000 
     52 H          37.1201   13.3460   42.5373 H         1 NAD3001     0.0000 
     53 H          38.4621   14.3007   41.8209 H         1 NAD3001     0.0000 
     54 H          37.0732   14.4187   46.9026 H         1 NAD3001     0.0000 
     55 H          39.6158   25.4584   47.6184 H         1 NAD3001     0.0000 
     56 H          39.6486   24.1712   46.4011 H         1 NAD3001     0.0000 
     57 H          37.6475   25.6245   46.2390 H         1 NAD3001     0.0000 
     58 H          39.0733   24.7479   44.1158 H         1 NAD3001     0.0000 
     59 H          40.2484   26.6899   43.8042 H         1 NAD3001     0.0000 
     60 H          37.7195   28.1827   44.2515 H         1 NAD3001     0.0000 
     61 H          41.2255   28.1799   45.4111 H         1 NAD3001     0.0000 
     62 H          44.4638   29.1832   46.6007 H         1 NAD3001     0.0000 
     63 H          42.9214   28.3122   46.3041 H         1 NAD3001     0.0000 
     64 H          41.9595   32.0759   44.0352 H         1 NAD3001     0.0000 
     65 H          39.6831   32.2216   43.2134 H         1 NAD3001     0.0000 
     66 H          38.2247   30.2923   43.3894 H         1 NAD3001     0.0000 
     67 H          42.4270   17.9005   48.5543 H         1 NAD3001     0.0000 
     68 H          42.5882   16.1083   47.2029 H         1 NAD3001     0.0000 
     69 H          36.6734   26.0455   44.6088 H         1 NAD3001     0.0000 
     70 H          39.4893   26.3309   41.8159 H         1 NAD3001     0.0000 
@<TRIPOS>BOND
     1    2    1 ar   
     2    3    1 ar   
     3    4    1 1    
     4   23    1 1    
     5    5    4 1    
     6    6    5 1    
     7   45    5 1    
     8   46    5 1    
     9    7    6 1    
    10    8    6 1    
    11   47    6 1    
    12   12    7 1    
    13    9    8 1    
    14   10    8 1    
    15   48    8 1    
    16   67    9 1    
    17   11   10 1    
    18   12   10 1    
    19   49   10 1    
    20   68   11 1    
    21   13   12 1    
    22   50   12 1    
    23   14   13 1    
    24   22   13 1    
    25   15   14 2    
    26   51   14 1    
    27   16   15 1    
    28   17   16 ar   
    29   22   16 ar   
    30   18   17 1    
    31   19   17 ar   
    32   52   18 1    
    33   53   18 1    
    34   20   19 ar   
    35   21   20 ar   
    36   54   20 1    
    37   22   21 ar   
    38   24   23 1    
    39   25   24 ar   
    40   26   24 ar   
    41   27   24 1    
    42   28   27 1    
    43   29   28 1    
    44   55   28 1    
    45   56   28 1    
    46   30   29 1    
    47   31   29 1    
    48   57   29 1    
    49   35   30 1    
    50   32   31 1    
    51   33   31 1    
    52   58   31 1    
    53   69   32 1    
    54   34   33 1    
    55   35   33 1    
    56   59   33 1    
    57   70   34 1    
    58   36   35 1    
    59   60   35 1    
    60   37   36 ar   
    61   44   36 ar   
    62   38   37 ar   
    63   61   37 1    
    64   39   38 1    
    65   42   38 ar   
    66   40   39 2    
    67   41   39 am   
    68   62   41 1    
    69   63   41 1    
    70   43   42 ar   
    71   64   42 1    
    72   44   43 ar   
    73   65   43 1    
    74   66   44 1    
@<TRIPOS>SUBSTRUCTURE
     1 NAD3001     1 GROUP   
@<TRIPOS>SET

