#    Name: 3uwo_0DJ_2_INTS_M
#    Modification time : Mon Mar 24 23:39:45 2014

@<TRIPOS>MOLECULE
3uwo_0DJ_2_INTS_M
   49     0     9     0     0
SMALL
NO_CHARGES


@<TRIPOS>ATOM
      1 CA          6.2460    1.2345    6.5600 C.3       3 GLC5        0.0000 
      2 CA          7.2990   -0.5040    6.7480 C.3       9 GLL5        0.0000 
      3 CA          5.1930    2.9730    6.3720 C.3       6 GLP5        0.0000 
      4 CA          6.8280    2.0570    7.1330 C.3       3 GLC5        0.0000 
      5 CA          8.4630    1.1410    7.8940 C.3       9 GLL5        0.0000 
      6 N           6.1970    1.3845    8.6050 N.am      2 SEC2        0.0000 
      7 N           7.1710    0.7130    7.4770 N.am      8 SEL2        0.0000 
      8 N           5.2230    2.0560    9.7330 N.am      5 SEP2        0.0000 
      9 O           7.7625    2.9310    9.3090 O.2       1 ALC1        0.0000 
     10 O           8.7500    2.1930    8.6820 O.2       7 ALL1        0.0000 
     11 O           6.7750    3.6690    9.9360 O.2       4 ALP1        0.0000 
     12 CA         13.7885    0.3015    8.4315 C.3       3 GLC5        0.0000 
     13 CA         12.1320    0.9480    8.1760 C.3       9 GLL5        0.0000 
     14 CA         15.4450   -0.3450    8.6870 C.3       6 GLP5        0.0000 
     15 CA         11.8900   -0.8640    8.6810 C.3       3 GLC5        0.0000 
     16 CA         11.6480   -2.6760    9.1860 C.3       6 GLP5        0.0000 
     17 CA         10.8455    0.3570    9.6240 C.3       3 GLC5        0.0000 
     18 CA          9.5590   -0.2340   11.0720 C.3       6 GLP5        0.0000 
     19 CA         12.7890    0.7455    6.3395 C.3       3 GLC5        0.0000 
     20 CA         13.4460    0.5430    4.5030 C.3       6 GLP5        0.0000 
     21 CA         11.3700    2.1800    6.7730 C.3       3 GLC5        0.0000 
     22 CA         10.6080    3.4120    5.3700 C.3       6 GLP5        0.0000 
     23 N          12.0205    3.1755    9.9240 N.am      2 SEC2        0.0000 
     24 N          10.6280    2.9960    9.5960 N.am      8 SEL2        0.0000 
     25 N          13.4130    3.3550   10.2520 N.am      5 SEP2        0.0000 
     26 N          10.6645    4.2590    9.8520 N.am      2 SEC2        0.0000 
     27 N          10.7010    5.5220   10.1080 N.am      5 SEP2        0.0000 
     28 CA         10.4520   -3.0825    7.5260 C.3       3 GLC5        0.0000 
     29 CA          9.2560   -3.4890    5.8660 C.3       9 GLL5        0.0000 
     30 N           6.3450   -1.4345    2.0070 N.am      2 SEC2        0.0000 
     31 N           5.9050   -2.6290    2.0730 N.am      8 SEL2        0.0000 
     32 N           6.7850   -0.2400    1.9410 N.am      5 SEP2        0.0000 
     33 CA          7.9455   -0.9283    8.4573 C.3       3 GLC5        0.0000 
     34 CA          8.3850   -1.1430    6.3910 C.3       9 GLL5        0.0000 
     35 CA          8.0490   -1.0330   10.3450 C.3       6 GLP5        0.0000 
     36 CA         10.6932   -1.3950    8.1498 C.3       3 GLC5        0.0000 
     37 CA          9.8090   -0.6960    6.7010 C.3       9 GLL5        0.0000 
     38 CA         10.3208   -0.2869    5.3120 C.3       3 GLC5        0.0000 
     39 CA          9.6680    0.4680    7.5260 C.3       9 GLL5        0.0000 
     40 CA         11.2590   -0.3480    3.5880 C.3       6 GLP5        0.0000 
     41 CA          8.5749   -0.2597    8.9244 C.3       3 GLC5        0.0000 
     42 CA          9.8544    1.9627    6.4369 C.3       3 GLC5        0.0000 
     43 CA         10.0305   -1.6495    4.6593 C.3       3 GLC5        0.0000 
     44 CA          8.3480   -2.4130    5.5950 C.3       9 GLL5        0.0000 
     45 CA          8.2315   -5.2172    6.8733 C.3       3 GLC5        0.0000 
     46 CA          7.2160   -6.3170    8.2750 C.3       6 GLP5        0.0000 
     47 CA          5.5568   -3.3622    4.7055 C.3       3 GLC5        0.0000 
     48 CA          7.3880   -3.6840    3.8030 C.3       9 GLL5        0.0000 
     49 CA          3.7380   -3.6460    5.2300 C.3       6 GLP5        0.0000 
@<TRIPOS>BOND
@<TRIPOS>SUBSTRUCTURE
     1 ALC1        9 GROUP        1 X    ALC  0     ROOT ALC X 1
     2 SEC2        6 GROUP        1 X    SEC  0     **** SEC X 2
     3 GLC5        1 GROUP        1 X    GLC  0     **** GLC X 6
     4 ALP1       11 GROUP        1 Y    ALP  0     ROOT ALP Y 8
     5 SEP2        8 GROUP        1 Y    SEP  0     **** SEP Y 9
     6 GLP5        3 GROUP        1 Y    GLP  0     **** GLP Y 13
     7 ALL1       10 GROUP        1 Z    ALL  0     ROOT ALL Z 15
     8 SEL2        7 GROUP        1 Z    SEL  0     **** SEL Z 16
     9 GLL5        2 GROUP        1 Z    GLL  0     **** GLL Z 20
@<TRIPOS>SET

