#    Name: 3uwo_0DJ_2_ligand
#    Modification time : Mon Mar 24 23:39:45 2014

@<TRIPOS>MOLECULE
3uwo_0DJ_2_ligand
   32    34     1     0     0
SMALL
NO_CHARGES


@<TRIPOS>ATOM
      1 C1          7.2990   -0.5040    6.7480 C.ar      1 0DJ801      0.0000 
      2 C2          8.3850   -1.1430    6.3910 C.ar      1 0DJ801      0.0000 
      3 C3          9.8090   -0.6960    6.7010 C.ar      1 0DJ801      0.0000 
      4 C4          9.6680    0.4680    7.5260 C.ar      1 0DJ801      0.0000 
      5 C5          8.4630    1.1410    7.8940 C.ar      1 0DJ801      0.0000 
      6 N6          7.1710    0.7130    7.4770 N.ar      1 0DJ801      0.0000 
      7 N7         10.7190    1.1710    8.1300 N.am      1 0DJ801      0.0000 
      8 C8         10.1220    2.1440    8.8290 C.2       1 0DJ801      0.0000 
      9 N9          8.7500    2.1930    8.6820 N.am      1 0DJ801      0.0000 
     10 C10        12.1320    0.9480    8.1760 C.3       1 0DJ801      0.0000 
     11 O11        10.6280    2.9960    9.5960 O.2       1 0DJ801      0.0000 
     12 C12         8.3480   -2.4130    5.5950 C.ar      1 0DJ801      0.0000 
     13 C13         9.2560   -3.4890    5.8660 C.ar      1 0DJ801      0.0000 
     14 C14         9.2380   -4.7460    5.0770 C.ar      1 0DJ801      0.0000 
     15 C15         8.2460   -4.7720    4.0040 C.ar      1 0DJ801      0.0000 
     16 C16         7.3880   -3.6840    3.8030 C.ar      1 0DJ801      0.0000 
     17 C17         7.3630   -2.4730    4.5590 C.ar      1 0DJ801      0.0000 
     18 C18         6.2830   -3.7560    2.5960 C.2       1 0DJ801      0.0000 
     19 O19         5.9050   -2.6290    2.0730 O.2       1 0DJ801      0.0000 
     20 N20         5.9550   -5.0480    2.2470 N.am      1 0DJ801      0.0000 
     21 H           6.3264   -0.9355    6.4638 H         1 0DJ801      0.0000 
     22 H          10.5441   -1.1102    6.4043 H         1 0DJ801      0.0000 
     23 H           8.1709    2.8241    9.0551 H         1 0DJ801      0.0000 
     24 H           9.9407   -3.4091    6.6167 H         1 0DJ801      0.0000 
     25 H           9.8335   -5.4754    5.2648 H         1 0DJ801      0.0000 
     26 H           8.1997   -5.6002    3.4125 H         1 0DJ801      0.0000 
     27 H           6.7330   -1.7521    4.3862 H         1 0DJ801      0.0000 
     28 H           6.3722   -5.7717    2.7967 H         1 0DJ801      0.0000 
     29 H           5.3283   -5.1495    1.4744 H         1 0DJ801      0.0000 
     30 H          12.5381    0.9488    7.2622 H         1 0DJ801      0.0000 
     31 H          12.6022    1.6534    8.7063 H         1 0DJ801      0.0000 
     32 H          12.3557    0.0682    8.5953 H         1 0DJ801      0.0000 
@<TRIPOS>BOND
     1    2    1 ar   
     2    6    1 ar   
     3   21    1 1    
     4    3    2 ar   
     5   12    2 1    
     6    4    3 ar   
     7   22    3 1    
     8    5    4 ar   
     9    7    4 1    
    10    6    5 ar   
    11    9    5 1    
    12    8    7 am   
    13   10    7 1    
    14    9    8 am   
    15   11    8 2    
    16   23    9 1    
    17   30   10 1    
    18   31   10 1    
    19   32   10 1    
    20   13   12 ar   
    21   17   12 ar   
    22   14   13 ar   
    23   24   13 1    
    24   15   14 ar   
    25   25   14 1    
    26   16   15 ar   
    27   26   15 1    
    28   17   16 ar   
    29   18   16 1    
    30   27   17 1    
    31   19   18 2    
    32   20   18 am   
    33   28   20 1    
    34   29   20 1    
@<TRIPOS>SUBSTRUCTURE
     1 0DJ801      1 GROUP   
@<TRIPOS>SET

