#    Name: 4la0_198_1_INTS_M
#    Modification time : Tue Mar 25 09:58:06 2014

@<TRIPOS>MOLECULE
4la0_198_1_INTS_M
   59     0     3     0     0
SMALL
NO_CHARGES


@<TRIPOS>ATOM
      1 CA        -17.0270  -15.6270    6.1895 C.3       1 GLC5        0.0000 
      2 CA        -17.1430  -14.5140    7.7160 C.3       3 GLL5        0.0000 
      3 CA        -16.9110  -16.7400    4.6630 C.3       2 GLP5        0.0000 
      4 CA        -18.2525  -18.2830   11.7435 C.3       1 GLC5        0.0000 
      5 CA        -18.0950  -16.7340   10.6490 C.3       3 GLL5        0.0000 
      6 CA        -18.4100  -19.8320   12.8380 C.3       2 GLP5        0.0000 
      7 CA        -18.2130  -15.7605   13.9705 C.3       1 GLC5        0.0000 
      8 CA        -19.4560  -15.3550   12.2080 C.3       3 GLL5        0.0000 
      9 CA        -16.9700  -16.1660   15.7330 C.3       2 GLP5        0.0000 
     10 CA        -17.2705   -9.7275    8.1170 C.3       1 GLC5        0.0000 
     11 CA        -17.1780  -10.7760    9.9570 C.3       3 GLL5        0.0000 
     12 CA        -17.3630   -8.6790    6.2770 C.3       2 GLP5        0.0000 
     13 CA        -15.1490   -8.1445   12.1590 C.3       1 GLC5        0.0000 
     14 CA        -14.1040   -8.6120   10.3240 C.3       3 GLL5        0.0000 
     15 CA        -16.1940   -7.6770   13.9940 C.3       2 GLP5        0.0000 
     16 CA        -14.9435   -9.8775   12.7445 C.3       1 GLC5        0.0000 
     17 CA        -14.5720  -11.0490   10.8640 C.3       3 GLL5        0.0000 
     18 CA        -15.3150   -8.7060   14.6250 C.3       2 GLP5        0.0000 
     19 CA        -14.1300   -9.5680   13.5395 C.3       1 GLC5        0.0000 
     20 CA        -12.9450  -10.4300   12.4540 C.3       3 GLL5        0.0000 
     21 CA        -12.0685  -10.6410   14.0355 C.3       1 GLC5        0.0000 
     22 CA        -11.1920  -10.8520   15.6170 C.3       2 GLP5        0.0000 
     23 CA        -10.9870  -11.8285    8.8950 C.3       1 GLC5        0.0000 
     24 CA        -12.3210  -10.8810   10.3570 C.3       3 GLL5        0.0000 
     25 CA         -9.6530  -12.7760    7.4330 C.3       2 GLP5        0.0000 
     26 CA        -13.3945  -14.6170   11.8620 C.3       1 GLC5        0.0000 
     27 CA        -12.9550  -12.5460   11.6270 C.3       3 GLL5        0.0000 
     28 CA        -13.8340  -16.6880   12.0970 C.3       2 GLP5        0.0000 
     29 CA        -12.5605  -13.7985   13.0775 C.3       1 GLC5        0.0000 
     30 CA        -12.1660  -15.0510   14.5280 C.3       2 GLP5        0.0000 
     31 CA        -15.5832  -15.2180    6.3323 C.3       1 GLC5        0.0000 
     32 CA        -14.9690  -13.5230    7.6210 C.3       3 GLL5        0.0000 
     33 CA        -15.5210  -16.9400    5.1960 C.3       2 GLP5        0.0000 
     34 CA        -15.2986  -12.4740    5.5671 C.3       1 GLC5        0.0000 
     35 CA        -14.1670  -12.5200    7.2460 C.3       3 GLL5        0.0000 
     36 CA        -15.6910  -11.9400    3.7770 C.3       2 GLP5        0.0000 
     37 CA        -13.1103  -14.1634    6.6384 C.3       1 GLC5        0.0000 
     38 CA        -14.4410  -14.6140    8.3180 C.3       3 GLL5        0.0000 
     39 CA        -11.7160  -14.5090    5.4010 C.3       2 GLP5        0.0000 
     40 CA        -15.6305  -16.1570    6.8317 C.3       1 GLC5        0.0000 
     41 CA        -16.6655  -16.7405   11.3665 C.3       1 GLC5        0.0000 
     42 CA        -14.9800  -17.4500   11.9360 C.3       2 GLP5        0.0000 
     43 CA        -19.2658  -13.5912   12.3607 C.3       1 GLC5        0.0000 
     44 CA        -18.6070  -15.3280   10.9450 C.3       3 GLL5        0.0000 
     45 CA        -19.5000  -11.8410   13.1450 C.3       2 GLP5        0.0000 
     46 CA        -17.2360  -11.4623   11.9768 C.3       1 GLC5        0.0000 
     47 CA        -16.7330  -12.0010   10.4560 C.3       3 GLL5        0.0000 
     48 CA        -18.3930  -10.8550   13.2720 C.3       2 GLP5        0.0000 
     49 CA        -15.0373  -12.0637   12.8803 C.3       1 GLC5        0.0000 
     50 CA        -15.4250  -12.1380   10.9070 C.3       3 GLL5        0.0000 
     51 CA        -15.0760  -12.5340   14.8750 C.3       2 GLP5        0.0000 
     52 CA        -17.5727  -10.5433   11.6052 C.3       1 GLC5        0.0000 
     53 CA        -16.3270   -9.6870    9.9200 C.3       3 GLL5        0.0000 
     54 CA        -16.6751   -9.1204   11.7449 C.3       1 GLC5        0.0000 
     55 CA        -15.0220   -9.8200   10.3710 C.3       3 GLL5        0.0000 
     56 CA        -17.4630   -8.2150   13.3350 C.3       2 GLP5        0.0000 
     57 CA        -15.4856   -8.5489    8.4119 C.3       1 GLC5        0.0000 
     58 CA        -16.0820   -7.9150    6.5890 C.3       2 GLP5        0.0000 
     59 CA        -14.0384  -12.1109   13.3215 C.3       1 GLC5        0.0000 
@<TRIPOS>BOND
@<TRIPOS>SUBSTRUCTURE
     1 GLC5        1 GROUP        1 X    GLC  0     ROOT GLC X 6
     2 GLP5        3 GROUP        1 Y    GLP  0     ROOT GLP Y 13
     3 GLL5        2 GROUP        1 Z    GLL  0     ROOT GLL Z 20
@<TRIPOS>SET

