#    Name: 4la0_198_1_ligand
#    Modification time : Tue Mar 25 09:58:06 2014

@<TRIPOS>MOLECULE
4la0_198_1_ligand
   43    44     1     0     0
SMALL
NO_CHARGES


@<TRIPOS>ATOM
      1 C16       -17.1430  -14.5140    7.7160 C.ar      1 198601      0.0000 
      2 C17       -16.3220  -13.4690    7.3160 C.ar      1 198601      0.0000 
      3 C18       -14.9690  -13.5230    7.6210 C.ar      1 198601      0.0000 
      4 F18       -14.1670  -12.5200    7.2460 F         1 198601      0.0000 
      5 C19       -14.4410  -14.6140    8.3180 C.ar      1 198601      0.0000 
      6 C20       -15.2650  -15.6540    8.7240 C.ar      1 198601      0.0000 
      7 C15       -16.6270  -15.6140    8.4140 C.ar      1 198601      0.0000 
      8 S14       -17.7240  -16.9440    8.9170 S.o2      1 198601      0.0000 
      9 O14       -17.2190  -18.2730    8.6050 O.2       1 198601      0.0000 
     10 O15       -18.9530  -16.9210    8.1470 O.2       1 198601      0.0000 
     11 C13       -18.0950  -16.7340   10.6490 C.3       1 198601      0.0000 
     12 C11       -18.6070  -15.3280   10.9450 C.3       1 198601      0.0000 
     13 O11       -19.3870  -14.8400    9.8690 O.3       1 198601      0.0000 
     14 C12       -19.4560  -15.3550   12.2080 C.3       1 198601      0.0000 
     15 C10       -17.4590  -14.3520   11.0970 C.2       1 198601      0.0000 
     16 O10       -16.4480  -14.6470   11.7020 O.2       1 198601      0.0000 
     17 N9        -17.6540  -13.0900   10.4710 N.am      1 198601      0.0000 
     18 C1        -16.7330  -12.0010   10.4560 C.ar      1 198601      0.0000 
     19 C2        -15.4250  -12.1380   10.9070 C.ar      1 198601      0.0000 
     20 C6        -17.1780  -10.7760    9.9570 C.ar      1 198601      0.0000 
     21 C5        -16.3270   -9.6870    9.9200 C.ar      1 198601      0.0000 
     22 C4        -15.0220   -9.8200   10.3710 C.ar      1 198601      0.0000 
     23 C8        -14.1040   -8.6120   10.3240 C.1       1 198601      0.0000 
     24 N8        -13.4150   -7.6990   10.2840 N.1       1 198601      0.0000 
     25 C3        -14.5720  -11.0490   10.8640 C.ar      1 198601      0.0000 
     26 C7        -13.1480  -11.2290   11.3640 C.3       1 198601      0.0000 
     27 F7B       -12.9450  -10.4300   12.4540 F         1 198601      0.0000 
     28 F7C       -12.3210  -10.8810   10.3570 F         1 198601      0.0000 
     29 F7A       -12.9550  -12.5460   11.6270 F         1 198601      0.0000 
     30 H         -18.1542  -14.4858    7.4979 H         1 198601      0.0000 
     31 H         -16.7074  -12.6724    6.8050 H         1 198601      0.0000 
     32 H         -13.4328  -14.6416    8.5293 H         1 198601      0.0000 
     33 H         -14.8822  -16.4469    9.2471 H         1 198601      0.0000 
     34 H         -17.1616  -16.9518   11.1243 H         1 198601      0.0000 
     35 H         -18.8230  -17.4958   10.8344 H         1 198601      0.0000 
     36 H         -18.5772  -12.9421    9.9635 H         1 198601      0.0000 
     37 H         -15.0975  -13.0405   11.2683 H         1 198601      0.0000 
     38 H         -18.1469  -10.6886    9.6157 H         1 198601      0.0000 
     39 H         -16.6576   -8.7826    9.5605 H         1 198601      0.0000 
     40 H         -18.9343  -15.6736   12.9994 H         1 198601      0.0000 
     41 H         -19.8108  -14.4484   12.4364 H         1 198601      0.0000 
     42 H         -20.2443  -15.9628   12.1126 H         1 198601      0.0000 
     43 H         -19.3367  -15.5524    9.1690 H         1 198601      0.0000 
@<TRIPOS>BOND
     1    2    1 ar   
     2    7    1 ar   
     3   30    1 1    
     4    3    2 ar   
     5   31    2 1    
     6    4    3 1    
     7    5    3 ar   
     8    6    5 ar   
     9   32    5 1    
    10    7    6 ar   
    11   33    6 1    
    12    8    7 1    
    13    9    8 2    
    14   10    8 2    
    15   11    8 1    
    16   12   11 1    
    17   34   11 1    
    18   35   11 1    
    19   13   12 1    
    20   14   12 1    
    21   15   12 1    
    22   43   13 1    
    23   40   14 1    
    24   41   14 1    
    25   42   14 1    
    26   16   15 2    
    27   17   15 am   
    28   18   17 1    
    29   36   17 1    
    30   19   18 ar   
    31   20   18 ar   
    32   25   19 ar   
    33   37   19 1    
    34   21   20 ar   
    35   38   20 1    
    36   22   21 ar   
    37   39   21 1    
    38   23   22 1    
    39   25   22 ar   
    40   24   23 3    
    41   26   25 1    
    42   27   26 1    
    43   28   26 1    
    44   29   26 1    
@<TRIPOS>SUBSTRUCTURE
     1 198601      1 GROUP   
@<TRIPOS>SET

