#    Name: 3HO8_1_CAVITY_N1_6.mol2
#    Modification time : Mon Mar 10 23:22:17 2014

@<TRIPOS>MOLECULE
3HO8_1_CAVITY_N1_6.mol2
   83     0     6     0     0
SMALL
NO_CHARGES


@<TRIPOS>ATOM
      1 CA         11.6769    7.7325   65.6491 C.3       5 GLY6        0.0000 
      2 CA         12.9115    8.0420   64.8554 C.3       5 GLY6        0.0000 
      3 CA          9.6256    7.4556   65.1850 C.3       5 GLY6        0.0000 
      4 CA         10.8602    7.7651   64.3913 C.3       5 GLY6        0.0000 
      5 DU         12.0948    8.0746   63.5976 H         6 CUB7        0.0000 
      6 N           8.8089    7.4881   63.9272 N.2       2 ALA2        0.0000 
      7 N          10.0435    7.7977   63.1336 N.2       2 ALA2        0.0000 
      8 N          11.2781    8.1072   62.3399 N.2       2 ALA2        0.0000 
      9 N           9.2268    7.8302   61.8758 N.2       2 ALA2        0.0000 
     10 N          10.4614    8.1397   61.0822 N.2       2 ALA2        0.0000 
     11 N          11.6960    8.4493   60.2885 N.2       2 ALA2        0.0000 
     12 CZ         15.1860    6.1349   70.4847 C.ar      4 PHE5        0.0000 
     13 CA         13.1347    5.8579   70.0206 C.3       5 GLY6        0.0000 
     14 CA         14.3693    6.1674   69.2270 C.3       5 GLY6        0.0000 
     15 CA         11.1025    6.2977   64.1960 C.3       5 GLY6        0.0000 
     16 N          11.5204    6.6398   62.1446 N.2       2 ALA2        0.0000 
     17 N          10.7037    6.6724   60.8868 N.2       2 ALA2        0.0000 
     18 NZ         11.9383    6.9819   60.0931 N.2       3 LYS4        0.0000 
     19 N          13.8847    9.1022   69.6176 N.2       2 ALA2        0.0000 
     20 CA         15.1193    9.4117   68.8240 C.3       5 GLY6        0.0000 
     21 N          11.8334    8.8252   69.1536 N.2       2 ALA2        0.0000 
     22 CA         13.0680    9.1347   68.3599 C.3       5 GLY6        0.0000 
     23 CA         14.3026    9.4442   67.5662 C.3       5 GLY6        0.0000 
     24 CZ         11.0167    8.8578   67.8958 C.ar      4 PHE5        0.0000 
     25 DU         12.2513    9.1673   67.1021 H         6 CUB7        0.0000 
     26 DU         13.4859    9.4768   66.3085 H         6 CUB7        0.0000 
     27 DU         14.7205    9.7863   65.5148 H         6 CUB7        0.0000 
     28 CZ         10.2000    8.8903   66.6381 C.ar      4 PHE5        0.0000 
     29 DU         11.4346    9.1999   65.8444 H         6 CUB7        0.0000 
     30 DU         12.6692    9.5094   65.0507 H         6 CUB7        0.0000 
     31 CZ          9.3833    8.9229   65.3803 C.ar      4 PHE5        0.0000 
     32 DU         10.6179    9.2324   64.5867 H         6 CUB7        0.0000 
     33 DU         11.8525    9.5420   63.7930 H         6 CUB7        0.0000 
     34 DU         13.0871    9.8515   62.9993 H         6 CUB7        0.0000 
     35 CA          9.8012    9.2650   63.3289 C.3       5 GLY6        0.0000 
     36 N          11.0358    9.5745   62.5352 N.2       2 ALA2        0.0000 
     37 N           8.9845    9.2976   62.0712 N.2       2 ALA2        0.0000 
     38 CA         10.5321   11.7925   68.2865 C.3       5 GLY6        0.0000 
     39 CA         11.7667   12.1020   67.4928 C.3       5 GLY6        0.0000 
     40 CA         13.0013   12.4115   66.6991 C.3       5 GLY6        0.0000 
     41 OG         14.2359   12.7211   65.9055 O.2       1 SER1        0.0000 
     42 OG         15.4706   13.0306   65.1118 O.2       1 SER1        0.0000 
     43 CZ          9.7154   11.8251   67.0287 C.ar      4 PHE5        0.0000 
     44 CZ         10.9500   12.1346   66.2351 C.ar      4 PHE5        0.0000 
     45 CZ         12.1846   12.4441   65.4414 C.ar      4 PHE5        0.0000 
     46 OG         13.4192   12.7536   64.6477 O.2       1 SER1        0.0000 
     47 N          14.6538   13.0632   63.8540 N.2       2 ALA2        0.0000 
     48 CZ         10.1333   12.1671   64.9773 C.ar      4 PHE5        0.0000 
     49 CZ         11.3679   12.4767   64.1837 C.ar      4 PHE5        0.0000 
     50 CZ         12.6025   12.7862   63.3900 C.ar      4 PHE5        0.0000 
     51 CZ          9.3166   12.1997   63.7196 C.ar      4 PHE5        0.0000 
     52 N          13.0204   13.1283   61.3386 N.2       2 ALA2        0.0000 
     53 CZ          8.3243   10.4228   64.3179 C.ar      4 PHE5        0.0000 
     54 CZ          9.5589   10.7324   63.5242 C.ar      4 PHE5        0.0000 
     55 N          10.7935   11.0419   62.7306 N.2       2 ALA2        0.0000 
     56 N          12.0281   11.3514   61.9369 N.2       2 ALA2        0.0000 
     57 CZ         14.9437    7.6022   70.6800 C.ar      4 PHE5        0.0000 
     58 N          12.8924    7.3253   70.2160 N.2       2 ALA2        0.0000 
     59 CA         14.1270    7.6348   69.4223 C.3       5 GLY6        0.0000 
     60 DU         15.3616    7.9443   68.6286 H         6 CUB7        0.0000 
     61 CA         12.0757    7.3578   68.9582 C.3       5 GLY6        0.0000 
     62 CA         13.3103    7.6674   68.1646 C.3       5 GLY6        0.0000 
     63 CA         14.5449    7.9769   67.3709 C.3       5 GLY6        0.0000 
     64 CA         12.4936    7.6999   66.9068 C.3       5 GLY6        0.0000 
     65 CA         13.7282    8.0095   66.1131 C.3       5 GLY6        0.0000 
     66 CA         11.5911   10.2926   69.3489 C.3       5 GLY6        0.0000 
     67 CA         12.8257   10.6021   68.5552 C.3       5 GLY6        0.0000 
     68 CA         15.2949   11.2211   66.9679 C.3       5 GLY6        0.0000 
     69 CZ          9.5398   10.0156   68.8848 C.ar      4 PHE5        0.0000 
     70 CA         10.7744   10.3251   68.0912 C.3       5 GLY6        0.0000 
     71 CA         12.0090   10.6347   67.2975 C.3       5 GLY6        0.0000 
     72 CA         13.2436   10.9442   66.5038 C.3       5 GLY6        0.0000 
     73 CA         14.4782   11.2537   65.7101 C.3       5 GLY6        0.0000 
     74 OG          9.9577   10.3577   66.8334 O.2       1 SER1        0.0000 
     75 DU         11.1923   10.6672   66.0397 H         6 CUB7        0.0000 
     76 DU         12.4269   10.9767   65.2461 H         6 CUB7        0.0000 
     77 DU         13.6615   11.2863   64.4524 H         6 CUB7        0.0000 
     78 CZ          9.1410   10.3903   65.5757 C.ar      4 PHE5        0.0000 
     79 CZ         10.3756   10.6998   64.7820 C.ar      4 PHE5        0.0000 
     80 CZ         11.6102   11.0093   63.9883 C.ar      4 PHE5        0.0000 
     81 DU         12.8448   11.3188   63.1946 H         6 CUB7        0.0000 
     82 CA         11.9423   13.9115   65.6367 C.3       5 GLY6        0.0000 
     83 OG         13.1769   14.2210   64.8431 O.2       1 SER1        0.0000 
@<TRIPOS>BOND
@<TRIPOS>SUBSTRUCTURE
     1 SER1       41 GROUP   
     2 ALA2        6 GROUP   
     3 LYS4       18 GROUP   
     4 PHE5       12 GROUP   
     5 GLY6        1 GROUP   
     6 CUB7        5 GROUP   
@<TRIPOS>SET

