#    Name: 3ho8_BTI_1_INTS_M
#    Modification time : Tue Mar 25 14:34:16 2014

@<TRIPOS>MOLECULE
3ho8_BTI_1_INTS_M
   24     0     3     0     0
SMALL
NO_CHARGES


@<TRIPOS>ATOM
      1 CA          8.1170    9.2000   63.8160 C.3       1 GLC5        0.0000 
      2 CA          9.9760    9.4230   63.9090 C.3       3 GLL5        0.0000 
      3 CA          6.2580    8.9770   63.7230 C.3       2 GLP5        0.0000 
      4 CA          9.4150   13.0585   67.7880 C.3       1 GLC5        0.0000 
      5 CA         10.3720   11.3440   67.4260 C.3       3 GLL5        0.0000 
      6 CA          8.4580   14.7730   68.1500 C.3       2 GLP5        0.0000 
      7 CA          9.1080    9.0920   68.6950 C.3       1 GLC5        0.0000 
      8 CA         10.3350   10.4100   68.9190 C.3       3 GLL5        0.0000 
      9 CA          7.8810    7.7740   68.4710 C.3       2 GLP5        0.0000 
     10 CA          8.7265   10.5750   69.8165 C.3       1 GLC5        0.0000 
     11 CA          7.1180   10.7400   70.7140 C.3       2 GLP5        0.0000 
     12 CA          9.7565    8.1650   69.1305 C.3       1 GLC5        0.0000 
     13 CA         11.1180    9.1320   68.6470 C.3       3 GLL5        0.0000 
     14 CA          8.3950    7.1980   69.6140 C.3       2 GLP5        0.0000 
     15 CA          8.9195   11.1752   64.9695 C.3       1 GLC5        0.0000 
     16 CA         10.7180   10.2000   64.9930 C.3       3 GLL5        0.0000 
     17 CA          7.4920   12.5390   65.4880 C.3       2 GLP5        0.0000 
     18 CA          8.9085   11.5777   66.2070 C.3       1 GLC5        0.0000 
     19 CA         10.2780    9.8890   66.4260 C.3       3 GLL5        0.0000 
     20 CA         10.8295    7.1710   67.3233 C.3       1 GLC5        0.0000 
     21 CA         10.5260    5.3480   66.7540 C.3       2 GLP5        0.0000 
     22 CA         11.6094   11.4848   69.3039 C.3       1 GLC5        0.0000 
     23 CA         12.4830   12.9650   70.1980 C.3       2 GLP5        0.0000 
     24 CA          9.3087    8.7551   67.7515 C.3       1 GLC5        0.0000 
@<TRIPOS>BOND
@<TRIPOS>SUBSTRUCTURE
     1 GLC5        1 GROUP        1 X    GLC  0     ROOT GLC X 6
     2 GLP5        3 GROUP        1 Y    GLP  0     ROOT GLP Y 13
     3 GLL5        2 GROUP        1 Z    GLL  0     ROOT GLL Z 20
@<TRIPOS>SET

