#    Name: 3ho8_BTI_1_ligand
#    Modification time : Tue Mar 25 14:34:16 2014

@<TRIPOS>MOLECULE
3ho8_BTI_1_ligand
   31    32     1     0     0
SMALL
NO_CHARGES


@<TRIPOS>ATOM
      1 C11        11.6850    7.2960   62.3230 C.2       1 BTI2000     0.0000 
      2 O11        11.5620    6.1200   62.0250 O.2       1 BTI2000     0.0000 
      3 C10        10.7300    8.3080   61.7390 C.3       1 BTI2000     0.0000 
      4 C9         10.7000    9.5850   62.5730 C.3       1 BTI2000     0.0000 
      5 C8          9.9760    9.4230   63.9090 C.3       1 BTI2000     0.0000 
      6 C7         10.7180   10.2000   64.9930 C.3       1 BTI2000     0.0000 
      7 C2         10.2780    9.8890   66.4260 C.3       1 BTI2000     0.0000 
      8 S1         10.3720   11.3440   67.4260 S.3       1 BTI2000     0.0000 
      9 C6         10.3350   10.4100   68.9190 C.3       1 BTI2000     0.0000 
     10 C5         11.1180    9.1320   68.6470 C.3       1 BTI2000     0.0000 
     11 N3         12.5020    9.4650   68.9560 N.am      1 BTI2000     0.0000 
     12 C3         13.2640    9.3680   67.8840 C.2       1 BTI2000     0.0000 
     13 O3         14.5810    9.4890   67.9070 O.2       1 BTI2000     0.0000 
     14 N2         12.5500    9.1130   66.8010 N.am      1 BTI2000     0.0000 
     15 C4         11.1480    8.8560   67.1380 C.3       1 BTI2000     0.0000 
     16 H          12.3897    7.7274   62.9548 H         1 BTI2000     0.0000 
     17 H           9.7234    7.8842   61.7018 H         1 BTI2000     0.0000 
     18 H          11.0363    8.5564   60.7198 H         1 BTI2000     0.0000 
     19 H          10.2069   10.3804   61.9939 H         1 BTI2000     0.0000 
     20 H          11.7329    9.9132   62.7642 H         1 BTI2000     0.0000 
     21 H           9.9451    8.3727   64.1756 H         1 BTI2000     0.0000 
     22 H           8.9659    9.8058   63.8187 H         1 BTI2000     0.0000 
     23 H          10.5885   11.2835   64.8094 H         1 BTI2000     0.0000 
     24 H          11.8017    9.9953   64.9023 H         1 BTI2000     0.0000 
     25 H           9.2524    9.6284   66.4891 H         1 BTI2000     0.0000 
     26 H           9.3112   10.2422   69.0830 H         1 BTI2000     0.0000 
     27 H          10.7998   11.0402   69.6190 H         1 BTI2000     0.0000 
     28 H          10.7702    8.3398   69.1692 H         1 BTI2000     0.0000 
     29 H          12.7555    9.7169   69.8584 H         1 BTI2000     0.0000 
     30 H          12.8415    9.0819   65.8767 H         1 BTI2000     0.0000 
     31 H          10.8612    7.8963   66.9426 H         1 BTI2000     0.0000 
@<TRIPOS>BOND
     1    2    1 2    
     2    3    1 1    
     3   16    1 1    
     4    4    3 1    
     5   17    3 1    
     6   18    3 1    
     7    5    4 1    
     8   19    4 1    
     9   20    4 1    
    10    6    5 1    
    11   21    5 1    
    12   22    5 1    
    13    7    6 1    
    14   23    6 1    
    15   24    6 1    
    16    8    7 1    
    17   15    7 1    
    18   25    7 1    
    19    9    8 1    
    20   10    9 1    
    21   26    9 1    
    22   27    9 1    
    23   11   10 1    
    24   15   10 1    
    25   28   10 1    
    26   12   11 am   
    27   29   11 1    
    28   13   12 2    
    29   14   12 am   
    30   15   14 1    
    31   30   14 1    
    32   31   15 1    
@<TRIPOS>SUBSTRUCTURE
     1 BTI2000     1 GROUP   
@<TRIPOS>SET

