#    Name: 4bge_PYW_1_INTS_M
#    Modification time : Tue Mar 25 07:41:23 2014

@<TRIPOS>MOLECULE
4bge_PYW_1_INTS_M
   88     0     6     0     0
SMALL
NO_CHARGES


@<TRIPOS>ATOM
      1 CA        -53.6880  -30.5015  -80.4500 C.3       2 GLC5        0.0000 
      2 CA        -55.0240  -29.1660  -81.5890 C.3       6 GLL5        0.0000 
      3 CA        -52.3520  -31.8370  -79.3110 C.3       4 GLP5        0.0000 
      4 CA        -55.6805  -25.0400  -81.0420 C.3       2 GLC5        0.0000 
      5 CA        -55.6850  -26.8410  -81.5710 C.3       6 GLL5        0.0000 
      6 CA        -55.6760  -23.2390  -80.5130 C.3       4 GLP5        0.0000 
      7 CA        -52.4535  -31.8050  -83.5965 C.3       2 GLC5        0.0000 
      8 CA        -53.8330  -30.1000  -83.6140 C.3       6 GLL5        0.0000 
      9 CA        -51.0740  -33.5100  -83.5790 C.3       4 GLP5        0.0000 
     10 CA        -55.6515  -30.2380  -86.7460 C.3       2 GLC5        0.0000 
     11 CA        -54.7460  -30.6200  -84.7350 C.3       6 GLL5        0.0000 
     12 CA        -56.5570  -29.8560  -88.7570 C.3       4 GLP5        0.0000 
     13 N         -56.5985  -28.2090  -86.6290 N.am      1 SEC2        0.0000 
     14 N         -56.7470  -28.7710  -85.4670 N.am      5 SEL2        0.0000 
     15 N         -56.4500  -27.6470  -87.7910 N.am      3 SEP2        0.0000 
     16 CA        -52.6735  -31.2205  -85.8930 C.3       2 GLC5        0.0000 
     17 CA        -54.2770  -32.0210  -85.2500 C.3       6 GLL5        0.0000 
     18 CA        -51.0700  -30.4200  -86.5360 C.3       4 GLP5        0.0000 
     19 CA        -52.6755  -32.7655  -84.4145 C.3       2 GLC5        0.0000 
     20 N         -53.4370  -33.3770  -82.9530 N.am      1 SEC2        0.0000 
     21 N         -54.2890  -33.0080  -84.2270 N.am      5 SEL2        0.0000 
     22 N         -52.5850  -33.7460  -81.6790 N.am      3 SEP2        0.0000 
     23 CA        -53.5930  -31.4595  -87.5750 C.3       2 GLC5        0.0000 
     24 CA        -55.0290  -32.5290  -86.4910 C.3       6 GLL5        0.0000 
     25 CA        -52.1570  -30.3900  -88.6590 C.3       4 GLP5        0.0000 
     26 CA        -55.7930  -31.1925  -87.6240 C.3       2 GLC5        0.0000 
     27 CA        -52.7565  -32.2595  -87.5360 C.3       2 GLC5        0.0000 
     28 CA        -54.1960  -33.5130  -87.3190 C.3       6 GLL5        0.0000 
     29 CA        -51.3170  -31.0060  -87.7530 C.3       4 GLP5        0.0000 
     30 CA        -55.2990  -32.0945  -88.6005 C.3       2 GLC5        0.0000 
     31 CA        -56.4020  -30.6760  -89.8820 C.3       4 GLP5        0.0000 
     32 CA        -52.5400  -34.0890  -85.9395 C.3       2 GLC5        0.0000 
     33 CA        -50.8840  -34.6650  -84.5600 C.3       4 GLP5        0.0000 
     34 CA        -54.3165  -35.0665  -85.8650 C.3       2 GLC5        0.0000 
     35 CA        -54.4370  -36.6200  -84.4110 C.3       4 GLP5        0.0000 
     36 CA        -52.6040  -34.2905  -88.2465 C.3       2 GLC5        0.0000 
     37 CA        -51.0120  -35.0680  -89.1740 C.3       4 GLP5        0.0000 
     38 CA        -57.5825  -31.6290  -87.9975 C.3       2 GLC5        0.0000 
     39 CA        -58.6080  -33.4020  -87.2380 C.3       6 GLL5        0.0000 
     40 CA        -56.9335  -36.9765  -89.1015 C.3       2 GLC5        0.0000 
     41 CA        -58.0790  -35.2110  -88.9750 C.3       6 GLL5        0.0000 
     42 CA        -55.7880  -38.7420  -89.2280 C.3       4 GLP5        0.0000 
     43 CA        -57.4810  -35.2755  -91.7280 C.3       2 GLC5        0.0000 
     44 CA        -57.5220  -34.3760  -90.0950 C.3       6 GLL5        0.0000 
     45 CA        -57.4400  -36.1750  -93.3610 C.3       4 GLP5        0.0000 
     46 CA        -57.3750  -33.0150  -91.4620 C.3       2 GLC5        0.0000 
     47 CA        -57.2280  -31.6540  -92.8290 C.3       4 GLP5        0.0000 
     48 CA        -58.1780  -29.5830  -87.5605 C.3       2 GLC5        0.0000 
     49 CA        -59.7990  -29.3100  -86.3640 C.3       6 GLL5        0.0000 
     50 CA        -59.7060  -28.3685  -87.8815 C.3       2 GLC5        0.0000 
     51 CA        -59.6130  -27.4270  -89.3990 C.3       4 GLP5        0.0000 
     52 CA        -57.9315  -25.2525  -84.5275 C.3       2 GLC5        0.0000 
     53 CA        -58.8870  -25.8890  -82.5970 C.3       6 GLL5        0.0000 
     54 CA        -56.9760  -24.6160  -86.4580 C.3       4 GLP5        0.0000 
     55 N         -58.0615  -24.9400  -84.5645 N.am      1 SEC2        0.0000 
     56 N         -58.7310  -25.9540  -83.9130 N.am      5 SEL2        0.0000 
     57 N         -57.3920  -23.9260  -85.2160 N.am      3 SEP2        0.0000 
     58 CA        -55.0301  -28.4222  -79.6746 C.3       2 GLC5        0.0000 
     59 CA        -55.6870  -28.0980  -80.9540 C.3       6 GLL5        0.0000 
     60 CA        -54.5400  -29.1080  -77.9280 C.3       4 GLP5        0.0000 
     61 CA        -53.7925  -27.7765  -84.9338 C.3       2 GLC5        0.0000 
     62 CA        -54.3960  -28.9600  -82.8410 C.3       6 GLL5        0.0000 
     63 CA        -53.1810  -27.2480  -86.7550 C.3       4 GLP5        0.0000 
     64 CA        -52.5240  -27.9635  -82.0658 C.3       2 GLC5        0.0000 
     65 CA        -54.4120  -27.6500  -83.3840 C.3       6 GLL5        0.0000 
     66 CA        -50.6440  -27.6220  -81.0190 C.3       4 GLP5        0.0000 
     67 CA        -52.9783  -29.7795  -85.1962 C.3       2 GLC5        0.0000 
     68 CA        -51.6670  -29.1990  -86.2180 C.3       4 GLP5        0.0000 
     69 CA        -60.4417  -32.8059  -88.7999 C.3       2 GLC5        0.0000 
     70 CA        -60.4700  -34.7700  -88.3590 C.3       6 GLL5        0.0000 
     71 CA        -61.2370  -31.2790  -89.5750 C.3       4 GLP5        0.0000 
     72 CA        -58.8298  -36.6961  -87.7930 C.3       2 GLC5        0.0000 
     73 CA        -59.0380  -34.3890  -88.1430 C.3       6 GLL5        0.0000 
     74 CA        -58.7430  -38.4970  -86.9730 C.3       4 GLP5        0.0000 
     75 CA        -61.0335  -30.5877  -87.0482 C.3       2 GLC5        0.0000 
     76 CA        -59.5030  -30.3670  -85.3290 C.3       6 GLL5        0.0000 
     77 CA        -62.4160  -31.3370  -88.2500 C.3       4 GLP5        0.0000 
     78 CA        -60.5740  -25.5655  -82.8860 C.3       2 GLC5        0.0000 
     79 CA        -59.2150  -27.0730  -81.8370 C.3       6 GLL5        0.0000 
     80 CA        -62.0970  -24.6500  -83.5550 C.3       4 GLP5        0.0000 
     81 CA        -59.4525  -23.7880  -78.9928 C.3       2 GLC5        0.0000 
     82 CA        -58.9720  -24.5720  -80.5890 C.3       6 GLL5        0.0000 
     83 CA        -59.7640  -22.4080  -77.7430 C.3       4 GLP5        0.0000 
     84 CA        -60.8720  -23.9690  -80.2558 C.3       2 GLC5        0.0000 
     85 CA        -62.6030  -22.7700  -80.2690 C.3       4 GLP5        0.0000 
     86 CA        -60.4808  -24.6285  -82.4143 C.3       2 GLC5        0.0000 
     87 CA        -57.3125  -24.0720  -80.8066 C.3       2 GLC5        0.0000 
     88 CA        -58.7570  -24.6420  -81.9580 C.3       6 GLL5        0.0000 
@<TRIPOS>BOND
@<TRIPOS>SUBSTRUCTURE
     1 SEC2       13 GROUP        1 X    SEC  0     ROOT SEC X 2
     2 GLC5        1 GROUP        1 X    GLC  0     **** GLC X 6
     3 SEP2       15 GROUP        1 Y    SEP  0     ROOT SEP Y 9
     4 GLP5        3 GROUP        1 Y    GLP  0     **** GLP Y 13
     5 SEL2       14 GROUP        1 Z    SEL  0     ROOT SEL Z 16
     6 GLL5        2 GROUP        1 Z    GLL  0     **** GLL Z 20
@<TRIPOS>SET

