#    Name: 4bge_PYW_1_ligand
#    Modification time : Tue Mar 25 07:41:23 2014

@<TRIPOS>MOLECULE
4bge_PYW_1_ligand
   71    73     1     0     0
SMALL
NO_CHARGES


@<TRIPOS>ATOM
      1 CAO       -55.0240  -29.1660  -81.5890 C.ar      1 PYW1270     0.0000 
      2 CAK       -55.6870  -28.0980  -80.9540 C.ar      1 PYW1270     0.0000 
      3 CAM       -55.6850  -26.8410  -81.5710 C.ar      1 PYW1270     0.0000 
      4 NAT       -55.0510  -26.5990  -82.7650 N.ar      1 PYW1270     0.0000 
      5 CAQ       -54.4120  -27.6500  -83.3840 C.ar      1 PYW1270     0.0000 
      6 CBF       -54.3960  -28.9600  -82.8410 C.ar      1 PYW1270     0.0000 
      7 CAS       -53.8330  -30.1000  -83.6140 C.3       1 PYW1270     0.0000 
      8 CBL       -54.7460  -30.6200  -84.7350 C.3       1 PYW1270     0.0000 
      9 NAV       -56.1290  -30.6530  -84.2820 N.am      1 PYW1270     0.0000 
     10 C         -57.0560  -29.7260  -84.7420 C.2       1 PYW1270     0.0000 
     11 O         -56.7470  -28.7710  -85.4670 O.2       1 PYW1270     0.0000 
     12 CBK       -54.2770  -32.0210  -85.2500 C.3       1 PYW1270     0.0000 
     13 OAJ       -54.2890  -33.0080  -84.2270 O.3       1 PYW1270     0.0000 
     14 CBJ       -55.0290  -32.5290  -86.4910 C.3       1 PYW1270     0.0000 
     15 CAD       -54.1960  -33.5130  -87.3190 C.3       1 PYW1270     0.0000 
     16 CBD       -56.3830  -33.1740  -86.2120 C.2       1 PYW1270     0.0000 
     17 OAH       -56.7080  -33.8130  -85.2290 O.2       1 PYW1270     0.0000 
     18 OAX       -57.2630  -32.9410  -87.2380 O.3       1 PYW1270     0.0000 
     19 CBE       -58.6080  -33.4020  -87.2380 C.2       1 PYW1270     0.0000 
     20 CAZ       -59.0380  -34.3890  -88.1430 C.2       1 PYW1270     0.0000 
     21 CAB       -60.4700  -34.7700  -88.3590 C.3       1 PYW1270     0.0000 
     22 CAR       -58.0790  -35.2110  -88.9750 C.3       1 PYW1270     0.0000 
     23 CAA       -57.5220  -34.3760  -90.0950 C.3       1 PYW1270     0.0000 
     24 CBA       -59.4400  -32.6390  -86.2770 C.2       1 PYW1270     0.0000 
     25 OAE       -60.4870  -32.9810  -85.7550 O.2       1 PYW1270     0.0000 
     26 OG1       -58.8340  -31.4540  -85.9890 O.3       1 PYW1270     0.0000 
     27 CB        -59.5030  -30.3670  -85.3290 C.3       1 PYW1270     0.0000 
     28 CG2       -59.7990  -29.3100  -86.3640 C.3       1 PYW1270     0.0000 
     29 CA        -58.5110  -29.9280  -84.2470 C.3       1 PYW1270     0.0000 
     30 N         -58.8970  -28.6470  -83.6730 N.am      1 PYW1270     0.0000 
     31 CBB       -59.2940  -28.4860  -82.3630 C.2       1 PYW1270     0.0000 
     32 OAF       -59.6770  -29.4520  -81.6950 O.2       1 PYW1270     0.0000 
     33 CBH       -59.2150  -27.0730  -81.8370 C.ar      1 PYW1270     0.0000 
     34 NAU       -59.4290  -26.9790  -80.4870 N.ar      1 PYW1270     0.0000 
     35 CAN       -59.3100  -25.7640  -79.8960 C.ar      1 PYW1270     0.0000 
     36 CAL       -58.9720  -24.5720  -80.5890 C.ar      1 PYW1270     0.0000 
     37 CAP       -58.7570  -24.6420  -81.9580 C.ar      1 PYW1270     0.0000 
     38 CBG       -58.8870  -25.8890  -82.5970 C.ar      1 PYW1270     0.0000 
     39 OAI       -58.7310  -25.9540  -83.9130 O.3       1 PYW1270     0.0000 
     40 H         -54.9945  -30.0864  -81.1509 H         1 PYW1270     0.0000 
     41 H         -56.1566  -28.2406  -80.0654 H         1 PYW1270     0.0000 
     42 H         -56.1928  -26.0577  -81.0917 H         1 PYW1270     0.0000 
     43 H         -53.9150  -27.4941  -84.2890 H         1 PYW1270     0.0000 
     44 H         -53.6114  -30.9453  -82.9328 H         1 PYW1270     0.0000 
     45 H         -52.8657  -29.8072  -84.0681 H         1 PYW1270     0.0000 
     46 H         -54.6503  -29.9253  -85.5796 H         1 PYW1270     0.0000 
     47 H         -56.3949  -31.3831  -83.6126 H         1 PYW1270     0.0000 
     48 H         -53.2086  -31.8721  -85.5847 H         1 PYW1270     0.0000 
     49 H         -55.2182  -31.6549  -87.1538 H         1 PYW1270     0.0000 
     50 H         -58.6051  -36.0723  -89.3862 H         1 PYW1270     0.0000 
     51 H         -57.2656  -35.5659  -88.3425 H         1 PYW1270     0.0000 
     52 H         -60.3937  -30.7065  -84.8665 H         1 PYW1270     0.0000 
     53 H         -58.4820  -30.6746  -83.4601 H         1 PYW1270     0.0000 
     54 H         -58.8605  -27.8223  -84.3157 H         1 PYW1270     0.0000 
     55 H         -59.4743  -25.6721  -78.8546 H         1 PYW1270     0.0000 
     56 H         -58.8932  -23.6982  -80.0826 H         1 PYW1270     0.0000 
     57 H         -58.5106  -23.8158  -82.4957 H         1 PYW1270     0.0000 
     58 H         -53.3469  -33.0978  -87.6455 H         1 PYW1270     0.0000 
     59 H         -53.9418  -34.3220  -86.7890 H         1 PYW1270     0.0000 
     60 H         -54.6936  -33.8347  -88.1245 H         1 PYW1270     0.0000 
     61 H         -60.5628  -35.4927  -89.0439 H         1 PYW1270     0.0000 
     62 H         -60.8957  -35.1060  -87.5188 H         1 PYW1270     0.0000 
     63 H         -61.0170  -33.9948  -88.6750 H         1 PYW1270     0.0000 
     64 H         -57.0249  -33.5789  -89.7522 H         1 PYW1270     0.0000 
     65 H         -56.8853  -34.8958  -90.6646 H         1 PYW1270     0.0000 
     66 H         -58.2431  -34.0347  -90.6979 H         1 PYW1270     0.0000 
     67 H         -58.9643  -28.9714  -86.7983 H         1 PYW1270     0.0000 
     68 H         -60.3880  -29.6587  -87.0930 H         1 PYW1270     0.0000 
     69 H         -60.2633  -28.5193  -85.9650 H         1 PYW1270     0.0000 
     70 H         -55.1445  -33.5083  -84.3603 H         1 PYW1270     0.0000 
     71 H         -59.5398  -25.5043  -84.2919 H         1 PYW1270     0.0000 
@<TRIPOS>BOND
     1    2    1 ar   
     2    6    1 ar   
     3   40    1 1    
     4    3    2 ar   
     5   41    2 1    
     6    4    3 ar   
     7   42    3 1    
     8    5    4 ar   
     9    6    5 ar   
    10   43    5 1    
    11    7    6 1    
    12    8    7 1    
    13   44    7 1    
    14   45    7 1    
    15    9    8 1    
    16   12    8 1    
    17   46    8 1    
    18   10    9 am   
    19   47    9 1    
    20   11   10 2    
    21   29   10 1    
    22   13   12 1    
    23   14   12 1    
    24   48   12 1    
    25   70   13 1    
    26   15   14 1    
    27   16   14 1    
    28   49   14 1    
    29   58   15 1    
    30   59   15 1    
    31   60   15 1    
    32   17   16 2    
    33   18   16 1    
    34   19   18 1    
    35   20   19 2    
    36   24   19 1    
    37   21   20 1    
    38   22   20 1    
    39   61   21 1    
    40   62   21 1    
    41   63   21 1    
    42   23   22 1    
    43   50   22 1    
    44   51   22 1    
    45   64   23 1    
    46   65   23 1    
    47   66   23 1    
    48   25   24 2    
    49   26   24 1    
    50   27   26 1    
    51   28   27 1    
    52   29   27 1    
    53   52   27 1    
    54   67   28 1    
    55   68   28 1    
    56   69   28 1    
    57   30   29 1    
    58   53   29 1    
    59   31   30 am   
    60   54   30 1    
    61   32   31 2    
    62   33   31 1    
    63   34   33 ar   
    64   38   33 ar   
    65   35   34 ar   
    66   36   35 ar   
    67   55   35 1    
    68   37   36 ar   
    69   56   36 1    
    70   38   37 ar   
    71   57   37 1    
    72   39   38 1    
    73   71   39 1    
@<TRIPOS>SUBSTRUCTURE
     1 PYW1270     1 GROUP   
@<TRIPOS>SET

