#    Name: 3fr8_NDP_2_INTS_M
#    Modification time : Tue Mar 25 06:22:08 2014

@<TRIPOS>MOLECULE
3fr8_NDP_2_INTS_M
   86     0    12     0     0
SMALL
NO_CHARGES


@<TRIPOS>ATOM
      1 NZ        -19.0150   47.6090   67.2105 N.4       3 LYC4        0.0000 
      2 NZ        -18.9530   48.2260   65.8540 N.4      11 LYL4        0.0000 
      3 NZ        -20.2400   46.3670   68.4470 N.4       7 LYP4        0.0000 
      4 N         -19.9085   47.2955   66.5645 N.am      2 SEC2        0.0000 
      5 N         -18.9530   48.2260   65.8540 N.am     10 SEL2        0.0000 
      6 N         -20.8640   46.3650   67.2750 N.am      6 SEP2        0.0000 
      7 N         -19.0150   47.6090   67.2105 N.am      2 SEC2        0.0000 
      8 N         -19.0770   46.9920   68.5670 N.am      6 SEP2        0.0000 
      9 CA        -18.7410   52.4370   62.8635 C.3       4 GLC5        0.0000 
     10 CA        -20.2700   51.0010   62.7870 C.3      12 GLL5        0.0000 
     11 CA        -17.2120   53.8730   62.9400 C.3       8 GLP5        0.0000 
     12 N         -17.7735   51.5545   62.1805 N.am      2 SEC2        0.0000 
     13 N         -19.3220   51.4310   61.8020 N.am     10 SEL2        0.0000 
     14 N         -16.2250   51.6780   62.5590 N.am      6 SEP2        0.0000 
     15 N         -22.9275   53.0020   63.1510 N.am      2 SEC2        0.0000 
     16 N         -22.5340   51.7540   62.4640 N.am     10 SEL2        0.0000 
     17 N         -23.3210   54.2500   63.8380 N.am      6 SEP2        0.0000 
     18 N         -21.9640   51.8525   58.4605 N.am      2 SEC2        0.0000 
     19 N         -22.3160   51.5240   59.8480 N.am     10 SEL2        0.0000 
     20 N         -21.6120   52.1810   57.0730 N.am      6 SEP2        0.0000 
     21 CA        -19.1955   53.4515   60.8445 C.3       4 GLC5        0.0000 
     22 CA        -19.9890   51.7190   60.5670 C.3      12 GLL5        0.0000 
     23 CA        -18.4020   55.1840   61.1220 C.3       8 GLP5        0.0000 
     24 CA        -19.3365   52.6455   55.3625 C.3       4 GLC5        0.0000 
     25 CA        -17.5780   52.1990   56.3570 C.3      12 GLL5        0.0000 
     26 CA        -21.0950   53.0920   54.3680 C.3       8 GLP5        0.0000 
     27 O         -15.4690   52.3045   55.1490 O.2       1 ALC1        0.0000 
     28 O         -16.7970   51.5500   55.4600 O.2       9 ALL1        0.0000 
     29 O         -14.1410   53.0590   54.8380 O.2       5 ALP1        0.0000 
     30 CA        -19.8955   53.6180   55.7045 C.3       4 GLC5        0.0000 
     31 CA        -18.6960   54.1440   57.0410 C.3      12 GLL5        0.0000 
     32 CA        -17.1640   54.5465   58.2850 C.3       4 GLC5        0.0000 
     33 CA        -15.6320   54.9490   59.5290 C.3       8 GLP5        0.0000 
     34 CA        -18.0260   53.2470   59.9140 C.3       4 GLC5        0.0000 
     35 CA        -18.8350   52.2280   58.3940 C.3      12 GLL5        0.0000 
     36 CA        -17.2170   54.2660   61.4340 C.3       8 GLP5        0.0000 
     37 N         -20.1550   51.3710   68.4045 N.am      2 SEC2        0.0000 
     38 N         -18.7790   51.9440   68.3360 N.am     10 SEL2        0.0000 
     39 N         -21.5310   50.7980   68.4730 N.am      6 SEP2        0.0000 
     40 N         -19.6265   52.3515   69.3125 N.am      2 SEC2        0.0000 
     41 N         -20.4740   52.7590   70.2890 N.am      6 SEP2        0.0000 
     42 CA        -17.6390   53.9555   69.0790 C.3       4 GLC5        0.0000 
     43 CA        -16.4480   53.3710   67.4170 C.3      12 GLL5        0.0000 
     44 CA        -18.8300   54.5400   70.7410 C.3       8 GLP5        0.0000 
     45 O         -11.8525   52.7610   66.5120 O.2       1 ALC1        0.0000 
     46 O         -12.8900   53.4320   66.8480 O.2       9 ALL1        0.0000 
     47 O         -10.8150   52.0900   66.1760 O.2       5 ALP1        0.0000 
     48 CA        -14.0680   50.0950   69.0195 C.3       4 GLC5        0.0000 
     49 CA        -13.5420   52.0730   68.7520 C.3      12 GLL5        0.0000 
     50 CA        -14.5940   48.1170   69.2870 C.3       8 GLP5        0.0000 
     51 O         -11.9570   50.9875   67.6215 O.2       1 ALC1        0.0000 
     52 O         -12.1320   51.8300   68.7660 O.2       9 ALL1        0.0000 
     53 O         -11.7820   50.1450   66.4770 O.2       5 ALP1        0.0000 
     54 CA        -15.8960   53.4575   70.7585 C.3       4 GLC5        0.0000 
     55 CA        -13.9340   53.0720   69.8310 C.3      12 GLL5        0.0000 
     56 CA        -17.8580   53.8430   71.6860 C.3       8 GLP5        0.0000 
     57 CA        -14.0695   55.0835   70.3090 C.3       4 GLC5        0.0000 
     58 CA        -14.2050   57.0950   70.7870 C.3       8 GLP5        0.0000 
     59 N         -18.4060   50.0370   74.0395 N.am      2 SEC2        0.0000 
     60 N         -17.3870   49.4800   73.2480 N.am     10 SEL2        0.0000 
     61 N         -19.4250   50.5940   74.8310 N.am      6 SEP2        0.0000 
     62 O         -18.8990   49.3805   71.3865 O.2       1 ALC1        0.0000 
     63 O         -17.3060   49.3950   71.0390 O.2       9 ALL1        0.0000 
     64 O         -20.4920   49.3660   71.7340 O.2       5 ALP1        0.0000 
     65 CA        -16.5480   50.4420   74.9245 C.3       4 GLC5        0.0000 
     66 CA        -15.2290   51.2930   73.4450 C.3      12 GLL5        0.0000 
     67 CA        -17.8670   49.5910   76.4040 C.3       8 GLP5        0.0000 
     68 NZ        -22.6845   51.3310   57.1180 N.4       3 LYC4        0.0000 
     69 NZ        -24.0550   51.3510   58.1210 N.4      11 LYL4        0.0000 
     70 NZ        -21.3140   51.3110   56.1150 N.4       7 LYP4        0.0000 
     71 N         -25.3855   51.5770   58.3000 N.am      2 SEC2        0.0000 
     72 N         -24.0550   51.3510   58.1210 N.am     10 SEL2        0.0000 
     73 N         -26.7160   51.8030   58.4790 N.am      6 SEP2        0.0000 
     74 CA        -21.6165   50.6827   64.4094 C.3       4 GLC5        0.0000 
     75 CA        -22.4160   50.8090   66.2260 C.3       8 GLP5        0.0000 
     76 CA        -16.5064   51.7103   58.0716 C.3       4 GLC5        0.0000 
     77 CA        -18.0390   51.5390   57.4920 C.3      12 GLL5        0.0000 
     78 CA        -14.6910   51.3720   58.4840 C.3       8 GLP5        0.0000 
     79 CA        -16.6035   55.0627   66.6335 C.3       4 GLC5        0.0000 
     80 CA        -17.4650   56.5620   65.6290 C.3       8 GLP5        0.0000 
     81 CA        -11.9335   53.4447   69.2987 C.3       4 GLC5        0.0000 
     82 CA        -10.1290   54.3170   69.3060 C.3       8 GLP5        0.0000 
     83 CA        -16.7225   52.5265   71.6655 C.3       4 GLC5        0.0000 
     84 CA        -15.3660   51.5080   71.0540 C.3      12 GLL5        0.0000 
     85 CA        -15.0905   49.6635   70.4660 C.3       4 GLC5        0.0000 
     86 CA        -16.0674   53.0701   72.2613 C.3       4 GLC5        0.0000 
@<TRIPOS>BOND
@<TRIPOS>SUBSTRUCTURE
     1 ALC1       27 GROUP        1 X    ALC  0     ROOT ALC X 1
     2 SEC2        4 GROUP        1 X    SEC  0     **** SEC X 2
     3 LYC4        1 GROUP        1 X    LYC  0     **** LYC X 4
     4 GLC5        9 GROUP        1 X    GLC  0     **** GLC X 6
     5 ALP1       29 GROUP        1 Y    ALP  0     ROOT ALP Y 8
     6 SEP2        6 GROUP        1 Y    SEP  0     **** SEP Y 9
     7 LYP4        3 GROUP        1 Y    LYP  0     **** LYP Y 11
     8 GLP5       11 GROUP        1 Y    GLP  0     **** GLP Y 13
     9 ALL1       28 GROUP        1 Z    ALL  0     ROOT ALL Z 15
    10 SEL2        5 GROUP        1 Z    SEL  0     **** SEL Z 16
    11 LYL4        2 GROUP        1 Z    LYL  0     **** LYL Z 18
    12 GLL5       10 GROUP        1 Z    GLL  0     **** GLL Z 20
@<TRIPOS>SET

