#    Name: 3fr8_NDP_2_ligand
#    Modification time : Tue Mar 25 06:22:08 2014

@<TRIPOS>MOLECULE
3fr8_NDP_2_ligand
   74    78     1     0     0
SMALL
NO_CHARGES


@<TRIPOS>ATOM
      1 PA        -18.0580   49.3470   65.3770 P.3       1 NDP600      0.0000 
      2 O1A       -16.5570   49.1710   65.4340 O.co2     1 NDP600      0.0000 
      3 O2A       -18.9530   48.2260   65.8540 O.co2     1 NDP600      0.0000 
      4 O5B       -18.4650   49.7580   63.8720 O.3       1 NDP600      0.0000 
      5 C5B       -19.8280   49.7030   63.4560 C.3       1 NDP600      0.0000 
      6 C4B       -20.2700   51.0010   62.7870 C.3       1 NDP600      0.0000 
      7 O4B       -19.3220   51.4310   61.8020 O.3       1 NDP600      0.0000 
      8 C3B       -21.5850   50.7610   62.0640 C.3       1 NDP600      0.0000 
      9 O3B       -22.5340   51.7540   62.4640 O.3       1 NDP600      0.0000 
     10 C2B       -21.2660   50.8930   60.5860 C.3       1 NDP600      0.0000 
     11 O2B       -22.3160   51.5240   59.8480 O.3       1 NDP600      0.0000 
     12 C1B       -19.9890   51.7190   60.5670 C.3       1 NDP600      0.0000 
     13 N9A       -19.1440   51.3850   59.3880 N.pl3     1 NDP600      0.0000 
     14 C8A       -18.5620   50.2030   59.1320 C.2       1 NDP600      0.0000 
     15 N7A       -17.8800   50.2870   57.9670 N.2       1 NDP600      0.0000 
     16 C5A       -18.0390   51.5390   57.4920 C.ar      1 NDP600      0.0000 
     17 C6A       -17.5780   52.1990   56.3570 C.ar      1 NDP600      0.0000 
     18 N6A       -16.7970   51.5500   55.4600 N.pl3     1 NDP600      0.0000 
     19 N1A       -17.9200   53.4950   56.1560 N.ar      1 NDP600      0.0000 
     20 C2A       -18.6960   54.1440   57.0410 C.ar      1 NDP600      0.0000 
     21 N3A       -19.1520   53.5280   58.1440 N.ar      1 NDP600      0.0000 
     22 C4A       -18.8350   52.2280   58.3940 C.ar      1 NDP600      0.0000 
     23 O3        -18.4680   50.6830   66.1810 O.3       1 NDP600      0.0000 
     24 PN        -17.7930   51.0810   67.5880 P.3       1 NDP600      0.0000 
     25 O1N       -18.7790   51.9440   68.3360 O.co2     1 NDP600      0.0000 
     26 O2N       -17.2550   49.8290   68.2330 O.co2     1 NDP600      0.0000 
     27 O5D       -16.5400   51.9770   67.1210 O.3       1 NDP600      0.0000 
     28 C5D       -16.4480   53.3710   67.4170 C.3       1 NDP600      0.0000 
     29 C4D       -15.0360   53.7560   67.8590 C.3       1 NDP600      0.0000 
     30 O4D       -14.9830   53.8780   69.2830 O.3       1 NDP600      0.0000 
     31 C3D       -13.9790   52.7360   67.4590 C.3       1 NDP600      0.0000 
     32 O3D       -12.8900   53.4320   66.8480 O.3       1 NDP600      0.0000 
     33 C2D       -13.5420   52.0730   68.7520 C.3       1 NDP600      0.0000 
     34 O2D       -12.1320   51.8300   68.7660 O.3       1 NDP600      0.0000 
     35 C1D       -13.9340   53.0720   69.8310 C.3       1 NDP600      0.0000 
     36 N1N       -14.3920   52.4370   71.0730 N.pl3     1 NDP600      0.0000 
     37 C2N       -15.3660   51.5080   71.0540 C.2       1 NDP600      0.0000 
     38 C3N       -15.8080   50.9120   72.2360 C.2       1 NDP600      0.0000 
     39 C7N       -16.8940   49.8730   72.2060 C.2       1 NDP600      0.0000 
     40 O7N       -17.3870   49.4800   73.2480 O.2       1 NDP600      0.0000 
     41 N7N       -17.3060   49.3950   71.0390 N.am      1 NDP600      0.0000 
     42 C4N       -15.2290   51.2930   73.4450 C.3       1 NDP600      0.0000 
     43 C5N       -14.2260   52.2580   73.4410 C.2       1 NDP600      0.0000 
     44 C6N       -13.8260   52.8190   72.2300 C.2       1 NDP600      0.0000 
     45 P2B       -23.6830   50.7530   59.4570 P.3       1 NDP600      0.0000 
     46 O1X       -23.3280   49.2830   59.4020 O.co2     1 NDP600      0.0000 
     47 O2X       -24.0550   51.3510   58.1210 O.co2     1 NDP600      0.0000 
     48 O3X       -24.6310   51.1180   60.5760 O.co2     1 NDP600      0.0000 
     49 H         -20.5057   49.5205   64.3099 H         1 NDP600      0.0000 
     50 H         -19.9997   48.8818   62.7364 H         1 NDP600      0.0000 
     51 H         -20.4301   51.7459   63.5351 H         1 NDP600      0.0000 
     52 H         -21.9062   49.7729   62.2621 H         1 NDP600      0.0000 
     53 H         -21.0212   49.9141   60.2150 H         1 NDP600      0.0000 
     54 H         -20.2786   52.7598   60.5320 H         1 NDP600      0.0000 
     55 H         -18.6180   49.4103   59.6904 H         1 NDP600      0.0000 
     56 H         -15.8719   51.9103   55.3401 H         1 NDP600      0.0000 
     57 H         -17.2148   50.7682   54.9973 H         1 NDP600      0.0000 
     58 H         -18.9496   55.1488   56.8669 H         1 NDP600      0.0000 
     59 H         -17.1403   53.6609   68.2253 H         1 NDP600      0.0000 
     60 H         -16.7025   53.9898   66.5401 H         1 NDP600      0.0000 
     61 H         -14.7766   54.7045   67.3970 H         1 NDP600      0.0000 
     62 H         -14.4243   52.0181   66.8278 H         1 NDP600      0.0000 
     63 H         -14.1234   51.1914   68.8903 H         1 NDP600      0.0000 
     64 H         -13.0663   53.6961   70.0296 H         1 NDP600      0.0000 
     65 H         -15.8084   51.2159   70.1586 H         1 NDP600      0.0000 
     66 H         -16.8608   49.7724   70.2270 H         1 NDP600      0.0000 
     67 H         -18.0245   48.7005   71.0769 H         1 NDP600      0.0000 
     68 H         -14.8417   50.3506   73.9882 H         1 NDP600      0.0000 
     69 H         -16.0632   51.6210   74.1729 H         1 NDP600      0.0000 
     70 H         -13.7874   52.5523   74.3163 H         1 NDP600      0.0000 
     71 H         -13.0764   53.5425   72.2451 H         1 NDP600      0.0000 
     72 H         -23.3356   51.5925   61.8884 H         1 NDP600      0.0000 
     73 H         -12.0706   52.9408   67.1437 H         1 NDP600      0.0000 
     74 H         -12.0241   50.9114   68.3859 H         1 NDP600      0.0000 
@<TRIPOS>BOND
     1    2    1 ar   
     2    3    1 ar   
     3    4    1 1    
     4   23    1 1    
     5    5    4 1    
     6    6    5 1    
     7   49    5 1    
     8   50    5 1    
     9    7    6 1    
    10    8    6 1    
    11   51    6 1    
    12   12    7 1    
    13    9    8 1    
    14   10    8 1    
    15   52    8 1    
    16   72    9 1    
    17   11   10 1    
    18   12   10 1    
    19   53   10 1    
    20   45   11 1    
    21   13   12 1    
    22   54   12 1    
    23   14   13 1    
    24   22   13 1    
    25   15   14 2    
    26   55   14 1    
    27   16   15 1    
    28   17   16 ar   
    29   22   16 ar   
    30   18   17 1    
    31   19   17 ar   
    32   56   18 1    
    33   57   18 1    
    34   20   19 ar   
    35   21   20 ar   
    36   58   20 1    
    37   22   21 ar   
    38   24   23 1    
    39   25   24 ar   
    40   26   24 ar   
    41   27   24 1    
    42   28   27 1    
    43   29   28 1    
    44   59   28 1    
    45   60   28 1    
    46   30   29 1    
    47   31   29 1    
    48   61   29 1    
    49   35   30 1    
    50   32   31 1    
    51   33   31 1    
    52   62   31 1    
    53   73   32 1    
    54   34   33 1    
    55   35   33 1    
    56   63   33 1    
    57   74   34 1    
    58   36   35 1    
    59   64   35 1    
    60   37   36 1    
    61   44   36 1    
    62   38   37 2    
    63   65   37 1    
    64   39   38 1    
    65   42   38 1    
    66   40   39 2    
    67   41   39 am   
    68   66   41 1    
    69   67   41 1    
    70   43   42 1    
    71   68   42 1    
    72   69   42 1    
    73   44   43 2    
    74   70   43 1    
    75   71   44 1    
    76   46   45 ar   
    77   47   45 ar   
    78   48   45 ar   
@<TRIPOS>SUBSTRUCTURE
     1 NDP600      1 GROUP   
@<TRIPOS>SET

