#    Name: 2R0G_2_CAVITY_N1_6.mol2
#    Modification time : Tue Mar 11 09:17:35 2014

@<TRIPOS>MOLECULE
2R0G_2_CAVITY_N1_6.mol2
   60     0     6     0     0
SMALL
NO_CHARGES


@<TRIPOS>ATOM
      1 CZ         18.9737  -29.0233   19.6548 C.ar      4 PHE5        0.0000 
      2 CZ         20.2441  -29.1051   18.8615 C.ar      4 PHE5        0.0000 
      3 CA         18.2151  -29.6076   18.5002 C.3       5 GLY6        0.0000 
      4 CZ         19.4855  -29.6894   17.7069 C.ar      4 PHE5        0.0000 
      5 CZ         23.3177  -22.5836   17.4392 C.ar      4 PHE5        0.0000 
      6 O          24.5882  -22.6654   16.6458 O.2       2 ALA2        0.0000 
      7 CA         22.5592  -23.1679   16.2845 C.3       5 GLY6        0.0000 
      8 N          23.8296  -23.2497   15.4912 N.2       2 ALA2        0.0000 
      9 O          25.1000  -23.3314   14.6979 O.2       2 ALA2        0.0000 
     10 N          23.0710  -23.8340   14.3366 N.2       2 ALA2        0.0000 
     11 CZ         24.3414  -23.9158   13.5433 C.ar      4 PHE5        0.0000 
     12 N          23.5835  -21.8706   14.9550 N.2       2 ALA2        0.0000 
     13 O          24.8539  -21.9523   14.1617 O.2       2 ALA2        0.0000 
     14 CZ         20.2448  -26.4756   21.4278 C.ar      4 PHE5        0.0000 
     15 OG         21.5152  -26.5574   20.6345 O.2       1 SER1        0.0000 
     16 CA         22.7856  -26.6391   19.8412 C.3       5 GLY6        0.0000 
     17 CZ         19.4862  -27.0599   20.2732 C.ar      4 PHE5        0.0000 
     18 DU         20.7566  -27.1417   19.4799 H         6 CUB7        0.0000 
     19 CA         22.0270  -27.2234   18.6866 C.3       5 GLY6        0.0000 
     20 CA         18.7276  -27.6442   19.1186 C.3       5 GLY6        0.0000 
     21 DU         19.9980  -27.7260   18.3253 H         6 CUB7        0.0000 
     22 CA         21.2685  -27.8078   17.5320 C.3       5 GLY6        0.0000 
     23 CA         17.9690  -28.2286   17.9640 C.3       5 GLY6        0.0000 
     24 CA         19.2394  -28.3103   17.1707 C.3       5 GLY6        0.0000 
     25 CZ         20.5099  -28.3921   16.3774 C.ar      4 PHE5        0.0000 
     26 CA         21.7803  -28.4738   15.5841 C.3       5 GLY6        0.0000 
     27 CZ         21.2691  -25.1783   20.0983 C.ar      4 PHE5        0.0000 
     28 CA         22.5395  -25.2600   19.3049 C.3       5 GLY6        0.0000 
     29 CA         23.8100  -25.3418   18.5116 C.3       5 GLY6        0.0000 
     30 O          25.0804  -25.4235   17.7183 O.2       2 ALA2        0.0000 
     31 CA         19.2401  -25.6808   19.7370 C.3       5 GLY6        0.0000 
     32 CA         20.5105  -25.7626   18.9437 C.3       5 GLY6        0.0000 
     33 CA         21.7809  -25.8443   18.1503 C.3       5 GLY6        0.0000 
     34 CA         23.0514  -25.9261   17.3570 C.3       5 GLY6        0.0000 
     35 CA         24.3218  -26.0079   16.5637 C.3       5 GLY6        0.0000 
     36 CA         18.4815  -26.2652   18.5824 C.3       5 GLY6        0.0000 
     37 O          19.7519  -26.3469   17.7890 O.2       2 ALA2        0.0000 
     38 CA         21.0223  -26.4287   16.9957 C.3       5 GLY6        0.0000 
     39 CA         22.2928  -26.5104   16.2024 C.3       5 GLY6        0.0000 
     40 CA         23.5632  -26.5922   15.4091 C.3       5 GLY6        0.0000 
     41 CA         18.9933  -26.9312   16.6344 C.3       5 GLY6        0.0000 
     42 NZ         20.2638  -27.0130   15.8411 N.2       3 LYS4        0.0000 
     43 NZ         21.5342  -27.0947   15.0478 N.2       3 LYS4        0.0000 
     44 CZ         22.8046  -27.1765   14.2545 C.ar      4 PHE5        0.0000 
     45 CZ         18.4612  -30.9867   19.0365 C.ar      4 PHE5        0.0000 
     46 N          22.8249  -22.4549   13.8004 N.2       2 ALA2        0.0000 
     47 CA         22.2934  -23.8809   18.7687 C.3       5 GLY6        0.0000 
     48 O          23.5639  -23.9627   17.9754 O.2       2 ALA2        0.0000 
     49 O          24.8343  -24.0444   17.1821 O.2       2 ALA2        0.0000 
     50 CA         21.5348  -24.4653   17.6141 C.3       5 GLY6        0.0000 
     51 CA         22.8053  -24.5470   16.8208 C.3       5 GLY6        0.0000 
     52 O          24.0757  -24.6288   16.0275 O.2       2 ALA2        0.0000 
     53 CZ         25.3461  -24.7105   15.2342 C.ar      4 PHE5        0.0000 
     54 N          20.7762  -25.0496   16.4595 N.2       2 ALA2        0.0000 
     55 N          22.0467  -25.1313   15.6662 N.2       2 ALA2        0.0000 
     56 CZ         23.3171  -25.2131   14.8729 C.ar      4 PHE5        0.0000 
     57 NZ         21.2881  -25.7157   14.5116 N.2       3 LYS4        0.0000 
     58 CZ         22.5585  -25.7974   13.7183 C.ar      4 PHE5        0.0000 
     59 CZ         19.7323  -28.4390   20.8094 C.ar      4 PHE5        0.0000 
     60 CZ         21.0027  -28.5208   20.0161 C.ar      4 PHE5        0.0000 
@<TRIPOS>BOND
@<TRIPOS>SUBSTRUCTURE
     1 SER1       15 GROUP   
     2 ALA2        6 GROUP   
     3 LYS4       42 GROUP   
     4 PHE5        1 GROUP   
     5 GLY6        3 GROUP   
     6 CUB7       18 GROUP   
@<TRIPOS>SET

