#    Name: 2r0g_7CK_2_INTS_M
#    Modification time : Mon Mar 24 23:01:50 2014

@<TRIPOS>MOLECULE
2r0g_7CK_2_INTS_M
   65     0    12     0     0
SMALL
NO_CHARGES


@<TRIPOS>ATOM
      1 NZ         26.3560  -23.0440   13.9685 N.4       3 LYC4        0.0000 
      2 NZ         25.9450  -23.1330   15.1500 N.4      11 LYL4        0.0000 
      3 NZ         28.0500  -22.8600   12.4850 N.4       7 LYP4        0.0000 
      4 N          26.3560  -23.0440   13.9685 N.am      2 SEC2        0.0000 
      5 N          25.9450  -23.1330   15.1500 N.am     10 SEL2        0.0000 
      6 N          26.7670  -22.9550   12.7870 N.am      6 SEP2        0.0000 
      7 N          26.5635  -23.2515   16.5095 N.am      2 SEC2        0.0000 
      8 N          27.1820  -23.3700   17.8690 N.am      6 SEP2        0.0000 
      9 CA         24.1450  -21.9660   17.3595 C.3       4 GLC5        0.0000 
     10 CA         24.0710  -23.5400   16.1940 C.3      12 GLL5        0.0000 
     11 CA         24.2190  -20.3920   18.5250 C.3       8 GLP5        0.0000 
     12 O          19.9995  -26.7980   13.1615 O.2       1 ALC1        0.0000 
     13 O          20.7110  -25.6910   13.2680 O.2       9 ALL1        0.0000 
     14 O          19.2880  -27.9050   13.0550 O.2       5 ALP1        0.0000 
     15 CA         19.6080  -24.8745   13.7490 C.3       4 GLC5        0.0000 
     16 CA         21.3520  -24.8970   12.3910 C.3      12 GLL5        0.0000 
     17 CA         17.8640  -24.8520   15.1070 C.3       8 GLP5        0.0000 
     18 CA         24.3005  -21.5640   10.4245 C.3       4 GLC5        0.0000 
     19 CA         23.0270  -23.0230   10.9150 C.3      12 GLL5        0.0000 
     20 CA         25.5740  -20.1050    9.9340 C.3       8 GLP5        0.0000 
     21 CA         19.4300  -26.0590   11.1560 C.3       4 GLC5        0.0000 
     22 CA         21.1470  -24.6940   10.9590 C.3      12 GLL5        0.0000 
     23 CA         17.7130  -27.4240   11.3530 C.3       8 GLP5        0.0000 
     24 CA         24.4960  -25.8870   19.3810 C.3       4 GLC5        0.0000 
     25 CA         23.4540  -24.5420   18.0700 C.3      12 GLL5        0.0000 
     26 CA         25.5380  -27.2320   20.6920 C.3       8 GLP5        0.0000 
     27 CA         21.5715  -23.6190   18.5315 C.3       4 GLC5        0.0000 
     28 CA         19.6890  -22.6960   18.9930 C.3       8 GLP5        0.0000 
     29 CA         23.9255  -23.0470   19.4435 C.3       4 GLC5        0.0000 
     30 CA         24.3970  -21.5520   20.8170 C.3       8 GLP5        0.0000 
     31 O          19.5590  -27.5240   14.5285 O.2       1 ALC1        0.0000 
     32 O          19.8300  -27.1430   16.0020 O.2       9 ALL1        0.0000 
     33 CA         20.3720  -24.8090   19.2310 C.3       4 GLC5        0.0000 
     34 CA         21.0550  -26.9220   19.4690 C.3      12 GLL5        0.0000 
     35 CA         21.4340  -29.6030   20.4900 C.3       4 GLC5        0.0000 
     36 CA         20.1940  -27.8300   20.2090 C.3      12 GLL5        0.0000 
     37 CA         22.6740  -31.3760   20.7710 C.3       8 GLP5        0.0000 
     38 CA         21.6305  -29.0410   18.9800 C.3       4 GLC5        0.0000 
     39 CA         23.0670  -30.2520   17.7510 C.3       8 GLP5        0.0000 
     40 CA         21.4672  -23.2490   17.1557 C.3       4 GLC5        0.0000 
     41 CA         22.5870  -25.0300   17.0470 C.3      12 GLL5        0.0000 
     42 CA         20.1410  -21.8030   17.8860 C.3       8 GLP5        0.0000 
     43 CA         19.8137  -24.9772   14.8200 C.3       4 GLC5        0.0000 
     44 CA         22.3030  -24.6300   14.5200 C.3      12 GLL5        0.0000 
     45 CA         21.4910  -22.0525   12.5527 C.3       4 GLC5        0.0000 
     46 CA         22.3860  -24.1840   13.1160 C.3      12 GLL5        0.0000 
     47 CA         20.1790  -20.3940   12.3790 C.3       8 GLP5        0.0000 
     48 CA         21.3398  -21.8935   11.4715 C.3       4 GLC5        0.0000 
     49 CA         19.7919  -23.8351   11.2820 C.3       4 GLC5        0.0000 
     50 CA         21.9740  -23.7630   10.2130 C.3      12 GLL5        0.0000 
     51 CA         17.9720  -23.3910   11.6200 C.3       8 GLP5        0.0000 
     52 CA         20.4342  -24.5235   18.2563 C.3       4 GLC5        0.0000 
     53 CA         21.4960  -25.9620   17.0290 C.3      12 GLL5        0.0000 
     54 CA         19.5117  -25.4748   15.7550 C.3       4 GLC5        0.0000 
     55 CA         22.6016  -27.4738   16.7677 C.3       4 GLC5        0.0000 
     56 CA         20.8230  -26.2330   15.7770 C.3      12 GLL5        0.0000 
     57 CA         23.7710  -29.0830   17.1280 C.3       8 GLP5        0.0000 
     58 CA         18.1388  -26.9310   16.6663 C.3       4 GLC5        0.0000 
     59 CA         19.8030  -27.4860   17.3350 C.3      12 GLL5        0.0000 
     60 CA         16.9020  -25.9250   15.6300 C.3       8 GLP5        0.0000 
     61 CA         22.2325  -28.0502   17.8494 C.3       4 GLC5        0.0000 
     62 CA         20.8630  -26.7400   18.0100 C.3      12 GLL5        0.0000 
     63 CA         17.1730  -28.3033   19.3263 C.3       4 GLC5        0.0000 
     64 CA         18.9480  -28.3880   18.0700 C.3      12 GLL5        0.0000 
     65 CA         15.3050  -28.1310   19.8750 C.3       8 GLP5        0.0000 
@<TRIPOS>BOND
@<TRIPOS>SUBSTRUCTURE
     1 ALC1       12 GROUP        1 X    ALC  0     ROOT ALC X 1
     2 SEC2        4 GROUP        1 X    SEC  0     **** SEC X 2
     3 LYC4        1 GROUP        1 X    LYC  0     **** LYC X 4
     4 GLC5        9 GROUP        1 X    GLC  0     **** GLC X 6
     5 ALP1       14 GROUP        1 Y    ALP  0     ROOT ALP Y 8
     6 SEP2        6 GROUP        1 Y    SEP  0     **** SEP Y 9
     7 LYP4        3 GROUP        1 Y    LYP  0     **** LYP Y 11
     8 GLP5       11 GROUP        1 Y    GLP  0     **** GLP Y 13
     9 ALL1       13 GROUP        1 Z    ALL  0     ROOT ALL Z 15
    10 SEL2        5 GROUP        1 Z    SEL  0     **** SEL Z 16
    11 LYL4        2 GROUP        1 Z    LYL  0     **** LYL Z 18
    12 GLL5       10 GROUP        1 Z    GLL  0     **** GLL Z 20
@<TRIPOS>SET

