#    Name: 2r0g_7CK_2_ligand
#    Modification time : Mon Mar 24 23:01:50 2014

@<TRIPOS>MOLECULE
2r0g_7CK_2_ligand
   39    44     1     0     0
SMALL
NO_CHARGES


@<TRIPOS>ATOM
      1 O27        24.1950  -21.7170   14.9280 O.co2     1 7CK1357     0.0000 
      2 O26        25.9450  -23.1330   15.1500 O.co2     1 7CK1357     0.0000 
      3 C25        24.7420  -22.7740   15.4180 C.2       1 7CK1357     0.0000 
      4 C7         24.0710  -23.5400   16.1940 C.2       1 7CK1357     0.0000 
      5 N6         24.2830  -23.6750   17.4510 N.pl3     1 7CK1357     0.0000 
      6 C22        23.0000  -24.3600   15.8040 C.ar      1 7CK1357     0.0000 
      7 C21        22.3030  -24.6300   14.5200 C.ar      1 7CK1357     0.0000 
      8 C18        21.2240  -25.5750   14.5460 C.ar      1 7CK1357     0.0000 
      9 N12        20.7110  -25.6910   13.2680 N.pl3     1 7CK1357     0.0000 
     10 C19        21.3520  -24.8970   12.3910 C.ar      1 7CK1357     0.0000 
     11 C20        22.3860  -24.1840   13.1160 C.ar      1 7CK1357     0.0000 
     12 C8         23.2200  -23.2380   12.3370 C.ar      1 7CK1357     0.0000 
     13 C9         23.0270  -23.0230   10.9150 C.ar      1 7CK1357     0.0000 
     14 C10        21.9740  -23.7630   10.2130 C.ar      1 7CK1357     0.0000 
     15 C11        21.1470  -24.6940   10.9590 C.ar      1 7CK1357     0.0000 
     16 O24        23.4930  -24.8130   19.2740 O.3       1 7CK1357     0.0000 
     17 C5         23.4540  -24.5420   18.0700 C.2       1 7CK1357     0.0000 
     18 C23        22.5870  -25.0300   17.0470 C.ar      1 7CK1357     0.0000 
     19 C16        21.4960  -25.9620   17.0290 C.ar      1 7CK1357     0.0000 
     20 C17        20.8230  -26.2330   15.7770 C.ar      1 7CK1357     0.0000 
     21 N13        19.8300  -27.1430   16.0020 N.pl3     1 7CK1357     0.0000 
     22 C14        19.8030  -27.4860   17.3350 C.ar      1 7CK1357     0.0000 
     23 C15        20.8630  -26.7400   18.0100 C.ar      1 7CK1357     0.0000 
     24 C4         21.0550  -26.9220   19.4690 C.ar      1 7CK1357     0.0000 
     25 C3         20.1940  -27.8300   20.2090 C.ar      1 7CK1357     0.0000 
     26 C2         19.1340  -28.5630   19.4850 C.ar      1 7CK1357     0.0000 
     27 C1         18.9480  -28.3880   18.0700 C.ar      1 7CK1357     0.0000 
     28 H          25.0076  -23.1848   17.9719 H         1 7CK1357     0.0000 
     29 H          19.9630  -26.2906   13.0451 H         1 7CK1357     0.0000 
     30 H          23.9522  -22.7262   12.8299 H         1 7CK1357     0.0000 
     31 H          23.6035  -22.3774   10.4125 H         1 7CK1357     0.0000 
     32 H          21.8325  -23.6238    9.2337 H         1 7CK1357     0.0000 
     33 H          20.4174  -25.2114   10.4840 H         1 7CK1357     0.0000 
     34 H          19.2322  -27.4973   15.3301 H         1 7CK1357     0.0000 
     35 H          21.7830  -26.4125   19.9340 H         1 7CK1357     0.0000 
     36 H          20.3078  -27.9638   21.1894 H         1 7CK1357     0.0000 
     37 H          18.5390  -29.1937   20.0088 H         1 7CK1357     0.0000 
     38 H          18.2185  -28.8958   17.5868 H         1 7CK1357     0.0000 
     39 H          24.0704  -24.2356   19.8514 H         1 7CK1357     0.0000 
@<TRIPOS>BOND
     1    3    1 ar   
     2    3    2 ar   
     3    4    3 1    
     4    5    4 1    
     5    6    4 2    
     6   17    5 1    
     7   28    5 1    
     8    7    6 ar   
     9   18    6 ar   
    10    8    7 ar   
    11   11    7 1    
    12    9    8 1    
    13   20    8 ar   
    14   10    9 1    
    15   29    9 1    
    16   11   10 ar   
    17   15   10 ar   
    18   12   11 ar   
    19   13   12 ar   
    20   30   12 1    
    21   14   13 ar   
    22   31   13 1    
    23   15   14 ar   
    24   32   14 1    
    25   33   15 1    
    26   17   16 1    
    27   39   16 1    
    28   18   17 2    
    29   19   18 ar   
    30   20   19 ar   
    31   23   19 1    
    32   21   20 1    
    33   22   21 1    
    34   34   21 1    
    35   23   22 ar   
    36   27   22 ar   
    37   24   23 ar   
    38   25   24 ar   
    39   35   24 1    
    40   26   25 ar   
    41   36   25 1    
    42   27   26 ar   
    43   37   26 1    
    44   38   27 1    
@<TRIPOS>SUBSTRUCTURE
     1 7CK1357     1 GROUP   
@<TRIPOS>SET

