#    Name: 2qnq_QN3_1_INTS_M
#    Modification time : Mon Mar 24 22:32:18 2014

@<TRIPOS>MOLECULE
2qnq_QN3_1_INTS_M
   88     0     9     0     0
SMALL
NO_CHARGES


@<TRIPOS>ATOM
      1 CA        -22.7390   17.0995   -8.9850 C.3       3 GLC5        0.0000 
      2 CA        -21.9690   16.6720   -7.0090 C.3       9 GLL5        0.0000 
      3 CA        -23.5090   17.5270  -10.9610 C.3       6 GLP5        0.0000 
      4 CA        -21.6210   13.3765   -6.5100 C.3       3 GLC5        0.0000 
      5 CA        -21.7560   15.3520   -7.5020 C.3       9 GLL5        0.0000 
      6 CA        -21.4860   11.4010   -5.5180 C.3       6 GLP5        0.0000 
      7 CA        -22.8185   15.7110   -9.3555 C.3       3 GLC5        0.0000 
      8 CA        -23.8810   16.0700  -11.2090 C.3       6 GLP5        0.0000 
      9 CA        -18.8575   14.3845   -6.8800 C.3       3 GLC5        0.0000 
     10 CA        -20.5420   15.0360   -8.1760 C.3       9 GLL5        0.0000 
     11 CA        -17.1730   13.7330   -5.5840 C.3       6 GLP5        0.0000 
     12 CA        -20.6820   13.2415   -9.2625 C.3       3 GLC5        0.0000 
     13 CA        -20.8220   11.4470  -10.3490 C.3       6 GLP5        0.0000 
     14 CA        -16.2120   15.1325   -9.5035 C.3       3 GLC5        0.0000 
     15 CA        -18.0790   15.5790   -9.2030 C.3       9 GLL5        0.0000 
     16 CA        -14.3450   14.6860   -9.8040 C.3       6 GLP5        0.0000 
     17 CA        -16.1045   16.0115   -7.4120 C.3       3 GLC5        0.0000 
     18 CA        -15.8450   18.0910   -7.9740 C.3       9 GLL5        0.0000 
     19 CA        -16.3640   13.9320   -6.8500 C.3       6 GLP5        0.0000 
     20 CA        -17.3145   21.1620   -9.5040 C.3       3 GLC5        0.0000 
     21 CA        -15.4980   20.4470   -8.9850 C.3       9 GLL5        0.0000 
     22 CA        -19.1310   21.8770  -10.0230 C.3       6 GLP5        0.0000 
     23 CA        -14.5730   22.5275  -11.1050 C.3       3 GLC5        0.0000 
     24 CA        -14.6860   21.5770   -9.2820 C.3       9 GLL5        0.0000 
     25 CA        -14.4600   23.4780  -12.9280 C.3       6 GLP5        0.0000 
     26 CA        -15.5885   23.4995   -8.6005 C.3       3 GLC5        0.0000 
     27 CA        -16.4910   25.4220   -7.9190 C.3       6 GLP5        0.0000 
     28 CA        -16.4730   22.3500   -9.8215 C.3       3 GLC5        0.0000 
     29 CA        -18.2600   23.1230  -10.3610 C.3       6 GLP5        0.0000 
     30 CA        -13.6195   18.0925   -9.4195 C.3       3 GLC5        0.0000 
     31 CA        -13.5860   19.3620   -7.8840 C.3       9 GLL5        0.0000 
     32 CA        -13.6530   16.8230  -10.9550 C.3       6 GLP5        0.0000 
     33 CA        -15.9960   15.9100   -3.5780 C.3       3 GLC5        0.0000 
     34 CA        -16.3310   17.2600   -4.9760 C.3       9 GLL5        0.0000 
     35 CA        -15.6610   14.5600   -2.1800 C.3       6 GLP5        0.0000 
     36 CA        -16.7520   15.4965   -5.2800 C.3       3 GLC5        0.0000 
     37 OD1       -14.2465   16.5350   -4.6630 O.co2     2 ASC3        0.0000 
     38 OD1       -14.9820   17.8160   -4.7060 O.co2     8 ASL3        0.0000 
     39 OD1       -13.5110   15.2540   -4.6200 O.co2     5 ASP3        0.0000 
     40 OD1       -14.2740   17.1985   -5.5390 O.co2     2 ASC3        0.0000 
     41 OD1       -13.5660   16.5810   -6.3720 O.co2     5 ASP3        0.0000 
     42 OD1       -14.0650   17.6095   -3.6550 O.co2     2 ASC3        0.0000 
     43 OD1       -13.1480   17.4030   -2.6040 O.co2     5 ASP3        0.0000 
     44 OD1       -15.0635   17.8695   -3.2655 O.co2     2 ASC3        0.0000 
     45 OD1       -15.1450   17.9230   -1.8250 O.co2     5 ASP3        0.0000 
     46 N         -19.5170   23.6975   -4.3400 N.am      1 SEC2        0.0000 
     47 N         -18.5820   22.7870   -3.5540 N.am      7 SEL2        0.0000 
     48 N         -20.4520   24.6080   -5.1260 N.am      4 SEP2        0.0000 
     49 CA        -14.2985   24.6758   -0.5468 C.3       3 GLC5        0.0000 
     50 CA        -13.6490   23.6870   -2.5430 C.3       9 GLL5        0.0000 
     51 CA        -14.4040   25.8960    1.0600 C.3       6 GLP5        0.0000 
     52 CA        -16.2455   21.8612   -1.0022 C.3       3 GLC5        0.0000 
     53 CA        -14.7370   23.2240   -1.7640 C.3       9 GLL5        0.0000 
     54 CA        -17.1620   20.7270    0.0800 C.3       6 GLP5        0.0000 
     55 CA        -12.9000   22.2204   -2.2549 C.3       3 GLC5        0.0000 
     56 CA        -11.8290   20.8690   -1.4550 C.3       6 GLP5        0.0000 
     57 CA        -15.7177   24.3373   -6.6927 C.3       3 GLC5        0.0000 
     58 CA        -14.9340   23.2330   -4.6060 C.3       9 GLL5        0.0000 
     59 CA        -17.5858   14.8695   -7.8157 C.3       3 GLC5        0.0000 
     60 CA        -19.5360   16.0350   -8.3600 C.3       9 GLL5        0.0000 
     61 CA        -18.7082   15.4205  -10.6608 C.3       3 GLC5        0.0000 
     62 CA        -18.6090   15.0340  -12.5400 C.3       6 GLP5        0.0000 
     63 CA        -15.0633   18.2380   -9.7825 C.3       3 GLC5        0.0000 
     64 CA        -14.7250   17.7680  -11.4360 C.3       6 GLP5        0.0000 
     65 CA        -14.9085   19.3900  -10.2847 C.3       3 GLC5        0.0000 
     66 CA        -12.8665   20.8612  -10.4535 C.3       3 GLC5        0.0000 
     67 CA        -11.7300   20.1340  -11.8270 C.3       6 GLP5        0.0000 
     68 CA        -11.4778   18.9367   -8.1707 C.3       3 GLC5        0.0000 
     69 CA        -12.7710   20.4890   -8.1770 C.3       9 GLL5        0.0000 
     70 CA         -9.7770   17.9480   -8.3110 C.3       6 GLP5        0.0000 
     71 CA        -12.4543   20.0297   -9.9287 C.3       3 GLC5        0.0000 
     72 CA        -21.5255   21.1140   -4.7805 C.3       3 GLC5        0.0000 
     73 CA        -20.3680   19.7000   -3.9380 C.3       9 GLL5        0.0000 
     74 CA        -22.0390   22.8310   -5.5830 C.3       6 GLP5        0.0000 
     75 CA        -21.5723   20.3217   -2.6342 C.3       3 GLC5        0.0000 
     76 CA        -21.6480   21.9590   -1.6810 C.3       6 GLP5        0.0000 
     77 CA        -19.2460   16.8250   -0.8850 C.3       3 GLC5        0.0000 
     78 CA        -21.0110   17.4580   -2.2940 C.3       9 GLL5        0.0000 
     79 CA        -18.1230   15.8880    0.4850 C.3       6 GLP5        0.0000 
     80 CA        -20.4170   18.3620   -0.3275 C.3       3 GLC5        0.0000 
     81 CA        -19.7270   18.0660   -2.2160 C.3       9 GLL5        0.0000 
     82 CA        -20.4650   18.9620    1.6000 C.3       6 GLP5        0.0000 
     83 CA        -20.4316   20.3716   -2.1381 C.3       3 GLC5        0.0000 
     84 CA        -18.1886   19.7556   -1.2576 C.3       3 GLC5        0.0000 
     85 CA        -19.3980   19.1890   -3.0370 C.3       9 GLL5        0.0000 
     86 CA        -17.0271   24.2950   -3.2648 C.3       3 GLC5        0.0000 
     87 CA        -15.9210   22.7670   -2.4050 C.3       9 GLL5        0.0000 
     88 CA        -18.3480   25.7080   -3.2170 C.3       6 GLP5        0.0000 
@<TRIPOS>BOND
@<TRIPOS>SUBSTRUCTURE
     1 SEC2       46 GROUP        1 X    SEC  0     ROOT SEC X 2
     2 ASC3       37 GROUP        1 X    ASC  0     **** ASC X 3
     3 GLC5        1 GROUP        1 X    GLC  0     **** GLC X 6
     4 SEP2       48 GROUP        1 Y    SEP  0     ROOT SEP Y 9
     5 ASP3       39 GROUP        1 Y    ASP  0     **** ASP Y 10
     6 GLP5        3 GROUP        1 Y    GLP  0     **** GLP Y 13
     7 SEL2       47 GROUP        1 Z    SEL  0     ROOT SEL Z 16
     8 ASL3       38 GROUP        1 Z    ASL  0     **** ASL Z 17
     9 GLL5        2 GROUP        1 Z    GLL  0     **** GLL Z 20
@<TRIPOS>SET

