#    Name: 2qnq_QN3_1_ligand
#    Modification time : Mon Mar 24 22:32:18 2014

@<TRIPOS>MOLECULE
2qnq_QN3_1_ligand
   69    73     1     0     0
SMALL
NO_CHARGES


@<TRIPOS>ATOM
      1 C2        -14.7370   23.2240   -1.7640 C.ar      1 QN32501     0.0000 
      2 C6        -13.6490   23.6870   -2.5430 C.ar      1 QN32501     0.0000 
      3 C5        -13.7490   23.6880   -3.9560 C.ar      1 QN32501     0.0000 
      4 C20       -14.9340   23.2330   -4.6060 C.ar      1 QN32501     0.0000 
      5 C27       -16.0490   22.7610   -3.8340 C.ar      1 QN32501     0.0000 
      6 S9        -17.6440   22.1560   -4.4740 S.o2      1 QN32501     0.0000 
      7 N32       -17.3770   20.4350   -4.1040 N.pl3     1 QN32501     0.0000 
      8 C24       -16.4990   19.6960   -5.0680 C.3       1 QN32501     0.0000 
      9 C23       -17.1200   18.3860   -5.6960 C.3       1 QN32501     0.0000 
     10 N28       -17.0730   18.3830   -7.1910 N.pl3     1 QN32501     0.0000 
     11 S8        -18.5450   18.7020   -8.0640 S.o2      1 QN32501     0.0000 
     12 O10       -19.0970   19.9320   -7.5320 O.2       1 QN32501     0.0000 
     13 O41       -18.2240   18.6930   -9.4900 O.2       1 QN32501     0.0000 
     14 C26       -19.7460   17.3730   -7.8620 C.ar      1 QN32501     0.0000 
     15 C19       -20.9680   17.6690   -7.1920 C.ar      1 QN32501     0.0000 
     16 C3        -21.9690   16.6720   -7.0090 C.ar      1 QN32501     0.0000 
     17 C4        -21.7560   15.3520   -7.5020 C.ar      1 QN32501     0.0000 
     18 C1        -20.5420   15.0360   -8.1760 C.ar      1 QN32501     0.0000 
     19 C17       -19.5360   16.0350   -8.3600 C.ar      1 QN32501     0.0000 
     20 CL1       -18.0790   15.5790   -9.2030 Cl        1 QN32501     0.0000 
     21 C7        -15.8450   18.0910   -7.9740 C.3       1 QN32501     0.0000 
     22 C12       -14.9580   19.3250   -8.2840 C.ar      1 QN32501     0.0000 
     23 C13       -15.4980   20.4470   -8.9850 C.ar      1 QN32501     0.0000 
     24 C29       -14.6860   21.5770   -9.2820 C.ar      1 QN32501     0.0000 
     25 C31       -13.3200   21.6000   -8.8780 C.ar      1 QN32501     0.0000 
     26 C30       -12.7710   20.4890   -8.1770 C.ar      1 QN32501     0.0000 
     27 C14       -13.5860   19.3620   -7.8840 C.ar      1 QN32501     0.0000 
     28 C21       -16.3310   17.2600   -4.9760 C.3       1 QN32501     0.0000 
     29 N22       -14.9820   17.8160   -4.7060 N.4       1 QN32501     0.0000 
     30 C25       -15.1360   19.2670   -4.4520 C.3       1 QN32501     0.0000 
     31 C33       -18.0090   19.8160   -2.9120 C.3       1 QN32501     0.0000 
     32 C34       -19.3980   19.1890   -3.0370 C.ar      1 QN32501     0.0000 
     33 C35       -20.3680   19.7000   -3.9380 C.ar      1 QN32501     0.0000 
     34 C36       -21.6560   19.0940   -4.0180 C.ar      1 QN32501     0.0000 
     35 C37       -21.9810   17.9720   -3.1970 C.ar      1 QN32501     0.0000 
     36 C39       -21.0110   17.4580   -2.2940 C.ar      1 QN32501     0.0000 
     37 C38       -19.7270   18.0660   -2.2160 C.ar      1 QN32501     0.0000 
     38 O11       -17.7330   22.2250   -5.9260 O.2       1 QN32501     0.0000 
     39 O40       -18.5820   22.7870   -3.5540 O.2       1 QN32501     0.0000 
     40 C18       -15.9210   22.7670   -2.4050 C.ar      1 QN32501     0.0000 
     41 CL3       -14.9550   23.2720   -6.3270 Cl        1 QN32501     0.0000 
     42 H         -14.6743   23.2173   -0.7486 H         1 QN32501     0.0000 
     43 H         -12.7999   24.0172   -2.0906 H         1 QN32501     0.0000 
     44 H         -12.9621   24.0191   -4.5220 H         1 QN32501     0.0000 
     45 H         -16.2461   20.3452   -5.9260 H         1 QN32501     0.0000 
     46 H         -18.1405   18.3467   -5.3235 H         1 QN32501     0.0000 
     47 H         -21.1299   18.6166   -6.8351 H         1 QN32501     0.0000 
     48 H         -22.8340   16.9016   -6.5275 H         1 QN32501     0.0000 
     49 H         -22.4678   14.6394   -7.3729 H         1 QN32501     0.0000 
     50 H         -20.3871   14.0932   -8.5301 H         1 QN32501     0.0000 
     51 H         -16.1120   17.6190   -8.9415 H         1 QN32501     0.0000 
     52 H         -15.2156   17.3528   -7.4364 H         1 QN32501     0.0000 
     53 H         -16.4774   20.4351   -9.2748 H         1 QN32501     0.0000 
     54 H         -15.0805   22.3698   -9.7833 H         1 QN32501     0.0000 
     55 H         -12.7401   22.4064   -9.0895 H         1 QN32501     0.0000 
     56 H         -11.7962   20.5028   -7.8866 H         1 QN32501     0.0000 
     57 H         -13.1889   18.5651   -7.3804 H         1 QN32501     0.0000 
     58 H         -16.2764   16.4139   -5.6308 H         1 QN32501     0.0000 
     59 H         -16.8401   17.0207   -4.0643 H         1 QN32501     0.0000 
     60 H         -15.1641   19.4763   -3.3973 H         1 QN32501     0.0000 
     61 H         -14.3576   19.8311   -4.9347 H         1 QN32501     0.0000 
     62 H         -18.0558   20.5800   -2.0777 H         1 QN32501     0.0000 
     63 H         -17.3161   19.0244   -2.4934 H         1 QN32501     0.0000 
     64 H         -20.1471   20.4990   -4.5284 H         1 QN32501     0.0000 
     65 H         -22.3510   19.4640   -4.6661 H         1 QN32501     0.0000 
     66 H         -22.8993   17.5462   -3.2598 H         1 QN32501     0.0000 
     67 H         -21.2331   16.6596   -1.7063 H         1 QN32501     0.0000 
     68 H         -19.0295   17.6975   -1.5660 H         1 QN32501     0.0000 
     69 H         -16.7078   22.4315   -1.8354 H         1 QN32501     0.0000 
@<TRIPOS>BOND
     1    2    1 ar   
     2   40    1 ar   
     3   42    1 1    
     4    3    2 ar   
     5   43    2 1    
     6    4    3 ar   
     7   44    3 1    
     8    5    4 ar   
     9   41    4 1    
    10    6    5 1    
    11   40    5 ar   
    12    7    6 1    
    13   38    6 2    
    14   39    6 2    
    15    8    7 1    
    16   31    7 1    
    17    9    8 1    
    18   30    8 1    
    19   45    8 1    
    20   10    9 1    
    21   28    9 1    
    22   46    9 1    
    23   11   10 1    
    24   21   10 1    
    25   12   11 2    
    26   13   11 2    
    27   14   11 1    
    28   15   14 ar   
    29   19   14 ar   
    30   16   15 ar   
    31   47   15 1    
    32   17   16 ar   
    33   48   16 1    
    34   18   17 ar   
    35   49   17 1    
    36   19   18 ar   
    37   50   18 1    
    38   20   19 1    
    39   22   21 1    
    40   51   21 1    
    41   52   21 1    
    42   23   22 ar   
    43   27   22 ar   
    44   24   23 ar   
    45   53   23 1    
    46   25   24 ar   
    47   54   24 1    
    48   26   25 ar   
    49   55   25 1    
    50   27   26 ar   
    51   56   26 1    
    52   57   27 1    
    53   29   28 1    
    54   58   28 1    
    55   59   28 1    
    56   30   29 1    
    57   60   30 1    
    58   61   30 1    
    59   32   31 1    
    60   62   31 1    
    61   63   31 1    
    62   33   32 ar   
    63   37   32 ar   
    64   34   33 ar   
    65   64   33 1    
    66   35   34 ar   
    67   65   34 1    
    68   36   35 ar   
    69   66   35 1    
    70   37   36 ar   
    71   67   36 1    
    72   68   37 1    
    73   69   40 1    
@<TRIPOS>SUBSTRUCTURE
     1 QN32501     1 GROUP   
@<TRIPOS>SET

