#    Name: 2wtx_VDO_4_INTS_M
#    Modification time : Tue Mar 25 04:41:11 2014

@<TRIPOS>MOLECULE
2wtx_VDO_4_INTS_M
   72     0    15     0     0
SMALL
NO_CHARGES


@<TRIPOS>ATOM
      1 NZ         20.4030   20.0770   57.2720 N.4       4 LYC4        0.0000 
      2 NZ         21.3730   21.1450   56.5160 N.4      14 LYL4        0.0000 
      3 NZ         20.4770   18.5190   58.6840 N.4       9 LYP4        0.0000 
      4 N          21.5415   19.9660   57.3925 N.am      2 SEC2        0.0000 
      5 N          21.3730   21.1450   56.5160 N.am     12 SEL2        0.0000 
      6 N          21.7100   18.7870   58.2690 N.am      7 SEP2        0.0000 
      7 N          20.4030   20.0770   57.2720 N.am      2 SEC2        0.0000 
      8 N          19.4330   19.0090   58.0280 N.am      7 SEP2        0.0000 
      9 N          19.3925   19.5720   56.6090 N.am      2 SEC2        0.0000 
     10 N          19.3520   20.1350   55.1900 N.am     12 SEL2        0.0000 
     11 CA         19.4960   18.8530   53.6475 C.3       5 GLC5        0.0000 
     12 CA         18.2870   20.1590   54.1870 C.3      15 GLL5        0.0000 
     13 CA         20.7050   17.5470   53.1080 C.3      10 GLP5        0.0000 
     14 CA         16.8900   17.0555   56.8375 C.3       5 GLC5        0.0000 
     15 CA         16.8170   18.5920   55.4810 C.3      15 GLL5        0.0000 
     16 CA         16.9630   15.5190   58.1940 C.3      10 GLP5        0.0000 
     17 CA         13.8065   21.6540   55.3495 C.3       5 GLC5        0.0000 
     18 CA         15.2550   20.9640   56.5090 C.3      15 GLL5        0.0000 
     19 CA         12.3580   22.3440   54.1900 C.3      10 GLP5        0.0000 
     20 O          13.8065   21.5650   58.1520 O.2       1 ALC1        0.0000 
     21 O          15.0760   21.9420   57.5680 O.2      11 ALL1        0.0000 
     22 O          12.5370   21.1880   58.7360 O.2       6 ALP1        0.0000 
     23 CA         15.0315   19.5830   59.0285 C.3       5 GLC5        0.0000 
     24 CA         15.0370   19.5430   57.0690 C.3      15 GLL5        0.0000 
     25 CA         15.0260   19.6230   60.9880 C.3      10 GLP5        0.0000 
     26 O          13.1165   20.3060   58.1120 O.2       1 ALC1        0.0000 
     27 O          13.6960   19.4240   57.4880 O.2      11 ALL1        0.0000 
     28 OD1        15.2915   16.8045   54.3105 O.co2     3 ASC3        0.0000 
     29 OD1        14.3990   18.1540   54.9940 O.co2    13 ASL3        0.0000 
     30 OD1        16.1840   15.4550   53.6270 O.co2     8 ASP3        0.0000 
     31 OD1        14.9155   17.8140   53.7705 O.co2     3 ASC3        0.0000 
     32 OD1        15.4320   17.4740   52.5470 O.co2     8 ASP3        0.0000 
     33 CA         12.1895   20.2350   54.3120 C.3       5 GLC5        0.0000 
     34 CA         12.0210   18.1260   54.4340 C.3      15 GLL5        0.0000 
     35 N          13.9410   14.4890   56.4295 N.am      2 SEC2        0.0000 
     36 N          14.3600   15.4760   55.6480 N.am     12 SEL2        0.0000 
     37 N          13.5220   13.5020   57.2110 N.am      7 SEP2        0.0000 
     38 N          10.9570   13.3285   54.2100 N.am      2 SEC2        0.0000 
     39 N          12.4370   13.9490   54.1760 N.am     12 SEL2        0.0000 
     40 N           9.4770   12.7080   54.2440 N.am      7 SEP2        0.0000 
     41 N          11.5635   13.3315   52.8765 N.am      2 SEC2        0.0000 
     42 N          10.6900   12.7140   51.5770 N.am      7 SEP2        0.0000 
     43 O          13.3345   12.9140   54.3160 O.2       1 ALC1        0.0000 
     44 O          12.4370   13.9490   54.1760 O.2      11 ALL1        0.0000 
     45 O          14.2320   11.8790   54.4560 O.2       6 ALP1        0.0000 
     46 O          12.9795   13.7255   55.6935 O.2       1 ALC1        0.0000 
     47 O          13.5220   13.5020   57.2110 O.2       6 ALP1        0.0000 
     48 CA          9.7250   14.8260   52.9720 C.3       5 GLC5        0.0000 
     49 CA         11.3190   15.8520   53.4600 C.3      15 GLL5        0.0000 
     50 CA          8.1310   13.8000   52.4840 C.3      10 GLP5        0.0000 
     51 N          10.9585   14.0945   51.8245 N.am      2 SEC2        0.0000 
     52 N          11.2270   15.4750   52.0720 N.am     12 SEL2        0.0000 
     53 O          12.2125   15.7435   51.2770 O.2       1 ALC1        0.0000 
     54 O          11.2270   15.4750   52.0720 O.2      11 ALL1        0.0000 
     55 O          13.1980   16.0120   50.4820 O.2       6 ALP1        0.0000 
     56 CA          8.4370   17.8470   52.3350 C.3       5 GLC5        0.0000 
     57 CA         10.1980   18.0800   52.6980 C.3      15 GLL5        0.0000 
     58 CA          6.6760   17.6140   51.9720 C.3      10 GLP5        0.0000 
     59 CA          9.9350   18.1695   50.6895 C.3       5 GLC5        0.0000 
     60 CA          9.6720   18.2590   48.6810 C.3      10 GLP5        0.0000 
     61 O           9.3445   19.9425   54.3425 O.2       1 ALC1        0.0000 
     62 O           9.9300   19.3640   53.2320 O.2      11 ALL1        0.0000 
     63 O           8.7590   20.5210   55.4530 O.2       6 ALP1        0.0000 
     64 CA         15.9335   17.7287   57.8672 C.3       5 GLC5        0.0000 
     65 CA         16.6450   16.4950   59.1550 C.3      10 GLP5        0.0000 
     66 CA         14.1340   17.7473   57.9733 C.3       5 GLC5        0.0000 
     67 CA         15.4070   18.3820   56.0900 C.3      15 GLL5        0.0000 
     68 CA         13.0460   16.5320   59.3670 C.3      10 GLP5        0.0000 
     69 CA         13.0620   16.6448   57.3582 C.3       5 GLC5        0.0000 
     70 CA         13.0860   17.5350   55.3690 C.3      15 GLL5        0.0000 
     71 CA         10.9521   18.4154   55.7241 C.3       5 GLC5        0.0000 
     72 CA         10.0120   19.2300   57.2160 C.3      10 GLP5        0.0000 
@<TRIPOS>BOND
@<TRIPOS>SUBSTRUCTURE
     1 ALC1       20 GROUP        1 X    ALC  0     ROOT ALC X 1
     2 SEC2        4 GROUP        1 X    SEC  0     **** SEC X 2
     3 ASC3       28 GROUP        1 X    ASC  0     **** ASC X 3
     4 LYC4        1 GROUP        1 X    LYC  0     **** LYC X 4
     5 GLC5       11 GROUP        1 X    GLC  0     **** GLC X 6
     6 ALP1       22 GROUP        1 Y    ALP  0     ROOT ALP Y 8
     7 SEP2        6 GROUP        1 Y    SEP  0     **** SEP Y 9
     8 ASP3       30 GROUP        1 Y    ASP  0     **** ASP Y 10
     9 LYP4        3 GROUP        1 Y    LYP  0     **** LYP Y 11
    10 GLP5       13 GROUP        1 Y    GLP  0     **** GLP Y 13
    11 ALL1       21 GROUP        1 Z    ALL  0     ROOT ALL Z 15
    12 SEL2        5 GROUP        1 Z    SEL  0     **** SEL Z 16
    13 ASL3       29 GROUP        1 Z    ASL  0     **** ASL Z 17
    14 LYL4        2 GROUP        1 Z    LYL  0     **** LYL Z 18
    15 GLL5       12 GROUP        1 Z    GLL  0     **** GLL Z 20
@<TRIPOS>SET

