#    Name: 2wtx_VDO_4_ligand
#    Modification time : Tue Mar 25 04:41:11 2014

@<TRIPOS>MOLECULE
2wtx_VDO_4_ligand
   50    51     1     0     0
SMALL
NO_CHARGES


@<TRIPOS>ATOM
      1 OAY        21.3730   21.1450   56.5160 O.co2     1 VDO1459     0.0000 
      2 PBA        20.3820   21.3560   55.2480 P.3       1 VDO1459     0.0000 
      3 OAZ        21.3150   21.2540   53.9490 O.co2     1 VDO1459     0.0000 
      4 OAX        19.6090   22.6250   55.2700 O.co2     1 VDO1459     0.0000 
      5 OAW        19.3520   20.1350   55.1900 O.3       1 VDO1459     0.0000 
      6 CAG        18.2870   20.1590   54.1870 C.3       1 VDO1459     0.0000 
      7 CAF        16.9130   19.9860   54.8410 C.3       1 VDO1459     0.0000 
      8 CAV        16.8170   18.5920   55.4810 C.3       1 VDO1459     0.0000 
      9 CAE        16.6590   21.0810   55.9050 C.3       1 VDO1459     0.0000 
     10 OAU        16.8440   22.3740   55.3410 O.3       1 VDO1459     0.0000 
     11 CAC        15.2550   20.9640   56.5090 C.3       1 VDO1459     0.0000 
     12 OAP        15.0760   21.9420   57.5680 O.3       1 VDO1459     0.0000 
     13 CAB        15.0370   19.5430   57.0690 C.3       1 VDO1459     0.0000 
     14 OAO        13.6960   19.4240   57.4880 O.3       1 VDO1459     0.0000 
     15 CAA        15.4070   18.3820   56.0900 C.3       1 VDO1459     0.0000 
     16 NAN        14.3990   18.1540   54.9940 N.4       1 VDO1459     0.0000 
     17 CAM        13.0860   17.5350   55.3690 C.3       1 VDO1459     0.0000 
     18 CAL        12.0210   18.1260   54.4340 C.2       1 VDO1459     0.0000 
     19 CAJ        13.0700   15.9800   55.3300 C.3       1 VDO1459     0.0000 
     20 OAT        14.3600   15.4760   55.6480 O.3       1 VDO1459     0.0000 
     21 CAI        12.6370   15.3460   53.9970 C.3       1 VDO1459     0.0000 
     22 OAS        12.4370   13.9490   54.1760 O.3       1 VDO1459     0.0000 
     23 CAH        11.3190   15.8520   53.4600 C.3       1 VDO1459     0.0000 
     24 OAR        11.2270   15.4750   52.0720 O.3       1 VDO1459     0.0000 
     25 CAK        11.2310   17.3710   53.5630 C.2       1 VDO1459     0.0000 
     26 CAD        10.1980   18.0800   52.6980 C.3       1 VDO1459     0.0000 
     27 OAQ         9.9300   19.3640   53.2320 O.3       1 VDO1459     0.0000 
     28 H          18.4207   19.3523   53.4563 H         1 VDO1459     0.0000 
     29 H          18.2871   21.1096   53.6403 H         1 VDO1459     0.0000 
     30 H          16.1525   20.0649   54.0804 H         1 VDO1459     0.0000 
     31 H          17.5557   18.5042   56.2669 H         1 VDO1459     0.0000 
     32 H          16.9898   17.8359   54.7264 H         1 VDO1459     0.0000 
     33 H          17.3770   20.9113   56.7147 H         1 VDO1459     0.0000 
     34 H          14.5338   21.1204   55.7193 H         1 VDO1459     0.0000 
     35 H          15.7061   19.4408   57.9457 H         1 VDO1459     0.0000 
     36 H          15.4703   17.4577   56.6990 H         1 VDO1459     0.0000 
     37 H          12.8255   17.8523   56.3837 H         1 VDO1459     0.0000 
     38 H          11.9231   19.1566   54.4932 H         1 VDO1459     0.0000 
     39 H          12.3537   15.6426   56.0978 H         1 VDO1459     0.0000 
     40 H          13.4005   15.5194   53.2585 H         1 VDO1459     0.0000 
     41 H          10.5192   15.4191   54.0253 H         1 VDO1459     0.0000 
     42 H           9.2987   17.4510   52.6689 H         1 VDO1459     0.0000 
     43 H          10.5984   18.1347   51.6772 H         1 VDO1459     0.0000 
     44 H          17.8350   22.4827   55.2628 H         1 VDO1459     0.0000 
     45 H          14.1972   21.7123   57.9864 H         1 VDO1459     0.0000 
     46 H          13.6342   19.9784   58.3180 H         1 VDO1459     0.0000 
     47 H          14.5494   14.7889   54.9466 H         1 VDO1459     0.0000 
     48 H          13.2146   13.6448   54.7264 H         1 VDO1459     0.0000 
     49 H          12.0696   15.8158   51.6550 H         1 VDO1459     0.0000 
     50 H           9.1971   19.6516   53.8487 H         1 VDO1459     0.0000 
@<TRIPOS>BOND
     1    2    1 ar   
     2    3    2 ar   
     3    4    2 ar   
     4    5    2 1    
     5    6    5 1    
     6    7    6 1    
     7   28    6 1    
     8   29    6 1    
     9    8    7 1    
    10    9    7 1    
    11   30    7 1    
    12   15    8 1    
    13   31    8 1    
    14   32    8 1    
    15   10    9 1    
    16   11    9 1    
    17   33    9 1    
    18   44   10 1    
    19   12   11 1    
    20   13   11 1    
    21   34   11 1    
    22   45   12 1    
    23   14   13 1    
    24   15   13 1    
    25   35   13 1    
    26   46   14 1    
    27   16   15 1    
    28   36   15 1    
    29   17   16 1    
    30   18   17 1    
    31   19   17 1    
    32   37   17 1    
    33   25   18 2    
    34   38   18 1    
    35   20   19 1    
    36   21   19 1    
    37   39   19 1    
    38   47   20 1    
    39   22   21 1    
    40   23   21 1    
    41   40   21 1    
    42   48   22 1    
    43   24   23 1    
    44   25   23 1    
    45   41   23 1    
    46   49   24 1    
    47   26   25 1    
    48   27   26 1    
    49   42   26 1    
    50   43   26 1    
    51   50   27 1    
@<TRIPOS>SUBSTRUCTURE
     1 VDO1459     1 GROUP   
@<TRIPOS>SET

