#    Name: 4er6_AW2_1_INTS_M
#    Modification time : Mon Mar 24 18:34:27 2014

@<TRIPOS>MOLECULE
4er6_AW2_1_INTS_M
  100     0     9     0     0
SMALL
NO_CHARGES


@<TRIPOS>ATOM
      1 CA         14.6995   63.7585   -8.8715 C.3       3 GLC5        0.0000 
      2 CA         15.0900   64.9800  -10.6170 C.3       9 GLL5        0.0000 
      3 CA         14.3090   62.5370   -7.1260 C.3       6 GLP5        0.0000 
      4 CA         16.1720   65.8230   -8.8415 C.3       3 GLC5        0.0000 
      5 CA         17.2540   66.6660   -7.0660 C.3       6 GLP5        0.0000 
      6 CA         13.4835   66.2725  -10.4955 C.3       3 GLC5        0.0000 
      7 CA         11.8770   67.5650  -10.3740 C.3       6 GLP5        0.0000 
      8 O          12.9380   60.7330  -11.0605 O.2       1 ALC1        0.0000 
      9 O          13.7990   61.8480  -10.5650 O.2       7 ALL1        0.0000 
     10 O          12.0770   59.6180  -11.5560 O.2       4 ALP1        0.0000 
     11 N          14.0885   59.0080   -9.6635 N.am      2 SEC2        0.0000 
     12 N          15.1970   60.0850  -10.0720 N.am      8 SEL2        0.0000 
     13 N          12.9800   57.9310   -9.2550 N.am      5 SEP2        0.0000 
     14 CA         17.7110   60.0830   -8.0140 C.3       3 GLC5        0.0000 
     15 CA         16.4200   59.6430   -9.7590 C.3       9 GLL5        0.0000 
     16 CA         19.0020   60.5230   -6.2690 C.3       6 GLP5        0.0000 
     17 CA         18.1285   58.3450   -9.6035 C.3       3 GLC5        0.0000 
     18 CA         19.8370   57.0470   -9.4480 C.3       6 GLP5        0.0000 
     19 CA         16.7930   59.2900  -11.4195 C.3       3 GLC5        0.0000 
     20 CA         17.1660   58.9370  -13.0800 C.3       6 GLP5        0.0000 
     21 CA         14.9605   58.4085  -10.6375 C.3       3 GLC5        0.0000 
     22 CA         13.5010   57.1740  -11.5160 C.3       6 GLP5        0.0000 
     23 N          18.2220   59.1660  -10.5460 N.am      2 SEC2        0.0000 
     24 N          17.5480   60.3440   -9.5960 N.am      8 SEL2        0.0000 
     25 N          18.8960   57.9880  -11.4960 N.am      5 SEP2        0.0000 
     26 CA         18.1805   61.0930   -8.0250 C.3       3 GLC5        0.0000 
     27 CA         17.3590   61.6630   -9.7810 C.3       9 GLL5        0.0000 
     28 CA         17.4400   61.0440  -11.4625 C.3       3 GLC5        0.0000 
     29 CA         17.5210   60.4250  -13.1440 C.3       6 GLP5        0.0000 
     30 CA         16.3935   62.4580  -11.9835 C.3       3 GLC5        0.0000 
     31 CA         16.4050   63.6740  -10.1990 C.3       9 GLL5        0.0000 
     32 CA         16.3820   61.2420  -13.7680 C.3       6 GLP5        0.0000 
     33 CA         19.3690   61.4755   -7.8205 C.3       3 GLC5        0.0000 
     34 CA         19.7360   62.4280   -9.3720 C.3       9 GLL5        0.0000 
     35 CA         20.2580   61.7660   -7.1775 C.3       3 GLC5        0.0000 
     36 CA         21.5140   63.0090   -8.0860 C.3       9 GLL5        0.0000 
     37 O          21.4810   62.5755   -5.5145 O.2       1 ALC1        0.0000 
     38 O          21.9150   63.9040   -5.7330 O.2       7 ALL1        0.0000 
     39 O          21.0470   61.2470   -5.2960 O.2       4 ALP1        0.0000 
     40 CA         22.1765   64.8830   -3.5360 C.3       3 GLC5        0.0000 
     41 CA         23.2600   63.7820   -5.1440 C.3       9 GLL5        0.0000 
     42 CA         21.0930   65.9840   -1.9280 C.3       6 GLP5        0.0000 
     43 O          22.8985   60.3440   -2.3230 O.2       1 ALC1        0.0000 
     44 O          23.7080   61.6060   -3.1540 O.2       7 ALL1        0.0000 
     45 O          22.0890   59.0820   -1.4920 O.2       4 ALP1        0.0000 
     46 O          21.4375   61.1110   -1.2910 O.2       1 ALC1        0.0000 
     47 O          22.7160   62.1150   -1.1720 O.2       7 ALL1        0.0000 
     48 O          20.1590   60.1070   -1.4100 O.2       4 ALP1        0.0000 
     49 O          22.4025   60.5985   -1.3320 O.2       1 ALC1        0.0000 
     50 CA         18.7280   66.4715    3.2720 C.3       3 GLC5        0.0000 
     51 CA         20.5380   65.9250    3.5210 C.3       9 GLL5        0.0000 
     52 CA         16.9180   67.0180    3.0230 C.3       6 GLP5        0.0000 
     53 CA         21.7490   64.3005    6.7905 C.3       3 GLC5        0.0000 
     54 CA         21.6870   64.1790    4.8660 C.3       9 GLL5        0.0000 
     55 CA         21.8110   64.4220    8.7150 C.3       6 GLP5        0.0000 
     56 CA         21.3150   62.3875    4.6500 C.3       3 GLC5        0.0000 
     57 CA         20.9430   60.5960    4.4340 C.3       6 GLP5        0.0000 
     58 CA         24.7190   66.4075    5.0870 C.3       3 GLC5        0.0000 
     59 CA         23.0170   66.0290    3.9140 C.3       9 GLL5        0.0000 
     60 CA         26.4210   66.7860    6.2600 C.3       6 GLP5        0.0000 
     61 CA         22.4485   60.9625    1.4620 C.3       3 GLC5        0.0000 
     62 CA         21.3310   62.6130    0.7840 C.3       9 GLL5        0.0000 
     63 CA         23.5660   59.3120    2.1400 C.3       6 GLP5        0.0000 
     64 CA         21.2120   64.2985   -0.5720 C.3       3 GLC5        0.0000 
     65 CA         19.3135   62.6055   -5.7905 C.3       3 GLC5        0.0000 
     66 CA         19.6250   64.6880   -5.3120 C.3       9 GLL5        0.0000 
     67 CA         18.1195   65.1600   -5.8480 C.3       3 GLC5        0.0000 
     68 CA         16.6140   65.6320   -6.3840 C.3       6 GLP5        0.0000 
     69 CA         19.3725   66.5050   -6.3945 C.3       3 GLC5        0.0000 
     70 CA         21.4910   66.3440   -5.7230 C.3       9 GLL5        0.0000 
     71 O          22.4065   61.0320   -9.4550 O.2       1 ALC1        0.0000 
     72 O          22.9650   62.1530   -9.8030 O.2       7 ALL1        0.0000 
     73 O          21.8480   59.9110   -9.1070 O.2       4 ALP1        0.0000 
     74 O          21.3450   61.0645  -10.3035 O.2       1 ALC1        0.0000 
     75 O          20.8420   62.2180  -11.5000 O.2       7 ALL1        0.0000 
     76 O          21.0920   61.0330  -11.3720 O.2       1 ALC1        0.0000 
     77 O          21.3420   59.8480  -11.2440 O.2       4 ALP1        0.0000 
     78 CA         15.9800   61.5422  -11.9750 C.3       3 GLC5        0.0000 
     79 CA         16.1360   62.2720  -10.1090 C.3       9 GLL5        0.0000 
     80 CA         23.1260   60.3722   -4.8880 C.3       3 GLC5        0.0000 
     81 CA         23.9630   62.4680   -5.4460 C.3       9 GLL5        0.0000 
     82 CA         21.9520   58.6020   -4.9240 C.3       6 GLP5        0.0000 
     83 CA         24.4520   60.8907   -6.1675 C.3       3 GLC5        0.0000 
     84 CA         24.6370   61.8170   -4.2580 C.3       9 GLL5        0.0000 
     85 CA         24.6040   59.6390   -7.4830 C.3       6 GLP5        0.0000 
     86 CA         24.0796   62.3014    0.8231 C.3       3 GLC5        0.0000 
     87 CA         22.4640   62.8340    0.0200 C.3       9 GLL5        0.0000 
     88 CA         25.1110   60.6960    0.7360 C.3       6 GLP5        0.0000 
     89 CA         22.0706   64.9454   -0.5089 C.3       3 GLC5        0.0000 
     90 CA         20.0368   64.8266    5.4009 C.3       3 GLC5        0.0000 
     91 CA         21.8180   65.0980    3.6540 C.3       9 GLL5        0.0000 
     92 CA         18.6410   64.8080    6.5750 C.3       6 GLP5        0.0000 
     93 CA         22.1022   67.2871    4.2224 C.3       3 GLC5        0.0000 
     94 CA         22.1070   68.8040    4.6940 C.3       6 GLP5        0.0000 
     95 CA         20.1538   61.8192    2.0252 C.3       3 GLC5        0.0000 
     96 CA         21.1280   63.3320    1.9450 C.3       9 GLL5        0.0000 
     97 CA         19.0780   60.6660    2.6860 C.3       6 GLP5        0.0000 
     98 CA         19.2722   63.2717    0.4667 C.3       3 GLC5        0.0000 
     99 CA         17.3150   63.5710   -0.4310 C.3       6 GLP5        0.0000 
    100 CA         21.0104   65.7870   -3.7035 C.3       3 GLC5        0.0000 
@<TRIPOS>BOND
@<TRIPOS>SUBSTRUCTURE
     1 ALC1        8 GROUP        1 X    ALC  0     ROOT ALC X 1
     2 SEC2       11 GROUP        1 X    SEC  0     **** SEC X 2
     3 GLC5        1 GROUP        1 X    GLC  0     **** GLC X 6
     4 ALP1       10 GROUP        1 Y    ALP  0     ROOT ALP Y 8
     5 SEP2       13 GROUP        1 Y    SEP  0     **** SEP Y 9
     6 GLP5        3 GROUP        1 Y    GLP  0     **** GLP Y 13
     7 ALL1        9 GROUP        1 Z    ALL  0     ROOT ALL Z 15
     8 SEL2       12 GROUP        1 Z    SEL  0     **** SEL Z 16
     9 GLL5        2 GROUP        1 Z    GLL  0     **** GLL Z 20
@<TRIPOS>SET

