#    Name: 4er6_AW2_1_ligand
#    Modification time : Mon Mar 24 18:34:27 2014

@<TRIPOS>MOLECULE
4er6_AW2_1_ligand
   81    84     1     0     0
SMALL
NO_CHARGES


@<TRIPOS>ATOM
      1 BR9        15.0900   64.9800  -10.6170 Br        1 AW2502      0.0000 
      2 N01        13.7990   61.8480  -10.5650 N.pl3     1 AW2502      0.0000 
      3 C02        15.0200   61.4130  -10.2550 C.ar      1 AW2502      0.0000 
      4 N03        15.1970   60.0850  -10.0720 N.ar      1 AW2502      0.0000 
      5 C04        16.4200   59.6430   -9.7590 C.ar      1 AW2502      0.0000 
      6 N05        17.5480   60.3440   -9.5960 N.ar      1 AW2502      0.0000 
      7 C06        17.3590   61.6630   -9.7810 C.ar      1 AW2502      0.0000 
      8 C07        16.1360   62.2720  -10.1090 C.ar      1 AW2502      0.0000 
      9 C08        16.4050   63.6740  -10.1990 C.2       1 AW2502      0.0000 
     10 C10        17.7250   63.8700   -9.9400 C.2       1 AW2502      0.0000 
     11 N11        18.3160   62.6460   -9.6700 N.pl3     1 AW2502      0.0000 
     12 C12        19.7360   62.4280   -9.3720 C.3       1 AW2502      0.0000 
     13 O13        20.0680   63.0090   -8.1420 O.3       1 AW2502      0.0000 
     14 C14        21.5140   63.0090   -8.0860 C.3       1 AW2502      0.0000 
     15 C15        21.9610   64.1050   -7.1850 C.3       1 AW2502      0.0000 
     16 N16        21.9150   63.9040   -5.7330 N.4       1 AW2502      0.0000 
     17 C17        23.2600   63.7820   -5.1440 C.3       1 AW2502      0.0000 
     18 C18        23.9630   62.4680   -5.4460 C.3       1 AW2502      0.0000 
     19 C19        24.6370   61.8170   -4.2580 C.3       1 AW2502      0.0000 
     20 N20        23.7080   61.6060   -3.1540 N.am      1 AW2502      0.0000 
     21 C21        23.6480   62.4460   -2.1100 C.2       1 AW2502      0.0000 
     22 N22        22.7160   62.1150   -1.1720 N.am      1 AW2502      0.0000 
     23 C23        22.4640   62.8340    0.0200 C.ar      1 AW2502      0.0000 
     24 C24        23.3850   63.7890    0.4350 C.ar      1 AW2502      0.0000 
     25 C25        23.1720   64.5020    1.5930 C.ar      1 AW2502      0.0000 
     26 C26        22.0430   64.2890    2.3710 C.ar      1 AW2502      0.0000 
     27 C27        21.8180   65.0980    3.6540 C.3       1 AW2502      0.0000 
     28 C28        20.5380   65.9250    3.5210 C.3       1 AW2502      0.0000 
     29 C29        21.6870   64.1790    4.8660 C.3       1 AW2502      0.0000 
     30 C30        23.0170   66.0290    3.9140 C.3       1 AW2502      0.0000 
     31 C31        21.1280   63.3320    1.9450 C.ar      1 AW2502      0.0000 
     32 C32        21.3310   62.6130    0.7840 C.ar      1 AW2502      0.0000 
     33 O33        24.3730   63.4360   -2.0110 O.2       1 AW2502      0.0000 
     34 C34        21.1040   64.9840   -5.1580 C.3       1 AW2502      0.0000 
     35 C35        19.6250   64.6880   -5.3120 C.3       1 AW2502      0.0000 
     36 C36        21.4910   66.3440   -5.7230 C.3       1 AW2502      0.0000 
     37 C37        22.0000   63.1630   -9.5300 C.3       1 AW2502      0.0000 
     38 O38        22.9650   62.1530   -9.8030 O.3       1 AW2502      0.0000 
     39 C39        20.7030   63.0590  -10.3690 C.3       1 AW2502      0.0000 
     40 O40        20.8420   62.2180  -11.5000 O.3       1 AW2502      0.0000 
     41 H          13.6987   62.8370  -10.6740 H         1 AW2502      0.0000 
     42 H          13.0930   61.1463  -10.6607 H         1 AW2502      0.0000 
     43 H          16.5115   58.5499   -9.6154 H         1 AW2502      0.0000 
     44 H          18.1863   64.7118   -9.9403 H         1 AW2502      0.0000 
     45 H          19.9574   61.3618   -9.3454 H         1 AW2502      0.0000 
     46 H          21.8593   62.0576   -7.7158 H         1 AW2502      0.0000 
     47 H          21.3685   65.0402   -7.4461 H         1 AW2502      0.0000 
     48 H          23.0192   64.3971   -7.4828 H         1 AW2502      0.0000 
     49 H          21.3675   62.9485   -5.5561 H         1 AW2502      0.0000 
     50 H          23.2035   63.8984   -4.0401 H         1 AW2502      0.0000 
     51 H          23.9081   64.6112   -5.5014 H         1 AW2502      0.0000 
     52 H          24.7183   62.6424   -6.2393 H         1 AW2502      0.0000 
     53 H          23.2252   61.7600   -5.8757 H         1 AW2502      0.0000 
     54 H          25.4767   62.4576   -3.9406 H         1 AW2502      0.0000 
     55 H          25.0716   60.8583   -4.5872 H         1 AW2502      0.0000 
     56 H          23.0970   60.7681   -3.2246 H         1 AW2502      0.0000 
     57 H          22.1175   61.2463   -1.3311 H         1 AW2502      0.0000 
     58 H          24.2310   63.9598   -0.1323 H         1 AW2502      0.0000 
     59 H          23.8668   65.2141    1.8943 H         1 AW2502      0.0000 
     60 H          20.2768   63.1581    2.5145 H         1 AW2502      0.0000 
     61 H          20.6384   61.9098    0.4841 H         1 AW2502      0.0000 
     62 H          21.3106   65.0208   -4.0624 H         1 AW2502      0.0000 
     63 H          22.3777   64.1575   -9.6290 H         1 AW2502      0.0000 
     64 H          20.3668   64.0361  -10.5753 H         1 AW2502      0.0000 
     65 H          20.3579   66.4654    4.3429 H         1 AW2502      0.0000 
     66 H          20.5874   66.5651    2.7543 H         1 AW2502      0.0000 
     67 H          19.7364   65.3468    3.3690 H         1 AW2502      0.0000 
     68 H          22.5069   63.6225    5.0004 H         1 AW2502      0.0000 
     69 H          21.5418   64.6956    5.7098 H         1 AW2502      0.0000 
     70 H          20.9167   63.5482    4.7723 H         1 AW2502      0.0000 
     71 H          23.8692   65.5165    4.0194 H         1 AW2502      0.0000 
     72 H          23.1547   66.6755    3.1637 H         1 AW2502      0.0000 
     73 H          22.8945   66.5685    4.7470 H         1 AW2502      0.0000 
     74 H          19.3642   64.5881   -6.2722 H         1 AW2502      0.0000 
     75 H          19.3655   63.8409   -4.8482 H         1 AW2502      0.0000 
     76 H          19.0584   65.4174   -4.9287 H         1 AW2502      0.0000 
     77 H          22.4482   66.5650   -5.5362 H         1 AW2502      0.0000 
     78 H          21.3695   66.3823   -6.7148 H         1 AW2502      0.0000 
     79 H          20.9385   67.0797   -5.3314 H         1 AW2502      0.0000 
     80 H          22.7785   61.4303   -9.1374 H         1 AW2502      0.0000 
     81 H          21.4607   61.4894  -11.2061 H         1 AW2502      0.0000 
@<TRIPOS>BOND
     1    9    1 1    
     2    3    2 1    
     3   41    2 1    
     4   42    2 1    
     5    4    3 ar   
     6    8    3 ar   
     7    5    4 ar   
     8    6    5 ar   
     9   43    5 1    
    10    7    6 ar   
    11    8    7 ar   
    12   11    7 1    
    13    9    8 1    
    14   10    9 2    
    15   11   10 1    
    16   44   10 1    
    17   12   11 1    
    18   13   12 1    
    19   39   12 1    
    20   45   12 1    
    21   14   13 1    
    22   15   14 1    
    23   37   14 1    
    24   46   14 1    
    25   16   15 1    
    26   47   15 1    
    27   48   15 1    
    28   17   16 1    
    29   34   16 1    
    30   49   16 1    
    31   18   17 1    
    32   50   17 1    
    33   51   17 1    
    34   19   18 1    
    35   52   18 1    
    36   53   18 1    
    37   20   19 1    
    38   54   19 1    
    39   55   19 1    
    40   21   20 am   
    41   56   20 1    
    42   22   21 am   
    43   33   21 2    
    44   23   22 1    
    45   57   22 1    
    46   24   23 ar   
    47   32   23 ar   
    48   25   24 ar   
    49   58   24 1    
    50   26   25 ar   
    51   59   25 1    
    52   27   26 1    
    53   31   26 ar   
    54   28   27 1    
    55   29   27 1    
    56   30   27 1    
    57   65   28 1    
    58   66   28 1    
    59   67   28 1    
    60   68   29 1    
    61   69   29 1    
    62   70   29 1    
    63   71   30 1    
    64   72   30 1    
    65   73   30 1    
    66   32   31 ar   
    67   60   31 1    
    68   61   32 1    
    69   35   34 1    
    70   36   34 1    
    71   62   34 1    
    72   74   35 1    
    73   75   35 1    
    74   76   35 1    
    75   77   36 1    
    76   78   36 1    
    77   79   36 1    
    78   38   37 1    
    79   39   37 1    
    80   63   37 1    
    81   80   38 1    
    82   40   39 1    
    83   64   39 1    
    84   81   40 1    
@<TRIPOS>SUBSTRUCTURE
     1 AW2502      1 GROUP   
@<TRIPOS>SET

