#    Name: 3m4n_PA9_1_INTS_M
#    Modification time : Mon Mar 24 22:44:57 2014

@<TRIPOS>MOLECULE
3m4n_PA9_1_INTS_M
   71     0    12     0     0
SMALL
NO_CHARGES


@<TRIPOS>ATOM
      1 CA        106.8950   41.0525   81.9835 C.3       4 GLC5        0.0000 
      2 CA        108.4930   42.1650   82.1290 C.3      12 GLL5        0.0000 
      3 CA        105.2970   39.9400   81.8380 C.3       8 GLP5        0.0000 
      4 CA        109.5825   44.4740   81.9030 C.3       4 GLC5        0.0000 
      5 CA        108.2310   43.2290   83.1980 C.3      12 GLL5        0.0000 
      6 CA        110.9340   45.7190   80.6080 C.3       8 GLP5        0.0000 
      7 CA        108.9995   45.3070   83.5115 C.3       4 GLC5        0.0000 
      8 CA        109.7680   47.3850   83.8250 C.3       8 GLP5        0.0000 
      9 CA        109.2745   42.9105   84.9985 C.3       4 GLC5        0.0000 
     10 CA        110.3180   42.5920   86.7990 C.3       8 GLP5        0.0000 
     11 CA        108.3230   46.2640   83.9325 C.3       4 GLC5        0.0000 
     12 CA        106.8780   45.1430   84.0400 C.3      12 GLL5        0.0000 
     13 N         106.3735   43.6210   80.2855 N.am      2 SEC2        0.0000 
     14 N         107.6010   43.3220   80.2250 N.am     10 SEL2        0.0000 
     15 N         105.1460   43.9200   80.3460 N.am      6 SEP2        0.0000 
     16 NZ        110.6180   43.6955   79.9190 N.4       3 LYC4        0.0000 
     17 NZ        109.7100   42.7070   80.1330 N.4      11 LYL4        0.0000 
     18 NZ        111.5260   44.6840   79.7050 N.4       7 LYP4        0.0000 
     19 N         110.6180   43.6955   79.9190 N.am      2 SEC2        0.0000 
     20 N         109.7100   42.7070   80.1330 N.am     10 SEL2        0.0000 
     21 N         111.5260   44.6840   79.7050 N.am      6 SEP2        0.0000 
     22 NZ        105.4225   41.3610   86.2060 N.4       3 LYC4        0.0000 
     23 NZ        106.3290   41.7420   86.9020 N.4      11 LYL4        0.0000 
     24 NZ        103.4080   41.4180   84.9590 N.4       7 LYP4        0.0000 
     25 N         105.4225   41.3610   86.2060 N.am      2 SEC2        0.0000 
     26 N         106.3290   41.7420   86.9020 N.am     10 SEL2        0.0000 
     27 N         104.5160   40.9800   85.5100 N.am      6 SEP2        0.0000 
     28 NZ        103.9085   42.0515   86.6740 N.4       3 LYC4        0.0000 
     29 NZ        104.4090   42.6850   88.3890 N.4      11 LYL4        0.0000 
     30 N         103.7025   41.5545   88.6965 N.am      2 SEC2        0.0000 
     31 N         104.4090   42.6850   88.3890 N.am     10 SEL2        0.0000 
     32 N         102.9960   40.4240   89.0040 N.am      6 SEP2        0.0000 
     33 N         103.5955   43.0610   89.4315 N.am      2 SEC2        0.0000 
     34 N         102.7820   43.4370   90.4740 N.am      6 SEP2        0.0000 
     35 N         103.3285   43.2875   88.0665 N.am      2 SEC2        0.0000 
     36 N         102.2480   43.8900   87.7440 N.am      6 SEP2        0.0000 
     37 NZ        107.4200   43.3045   90.0345 N.4       3 LYC4        0.0000 
     38 NZ        106.7490   42.1490   89.4700 N.4      11 LYL4        0.0000 
     39 NZ        109.1820   43.7760   90.9190 N.4       7 LYP4        0.0000 
     40 N         106.0910   41.0100   90.0230 N.am      2 SEC2        0.0000 
     41 N         106.7490   42.1490   89.4700 N.am     10 SEL2        0.0000 
     42 N         105.4330   39.8710   90.5760 N.am      6 SEP2        0.0000 
     43 N         105.9635   42.2940   90.6420 N.am      2 SEC2        0.0000 
     44 N         105.1780   42.4390   91.8140 N.am      6 SEP2        0.0000 
     45 N         107.4200   43.3045   90.0345 N.am      2 SEC2        0.0000 
     46 N         108.0910   44.4600   90.5990 N.am      6 SEP2        0.0000 
     47 N         108.0880   42.3825   89.8945 N.am      2 SEC2        0.0000 
     48 N         109.4270   42.6160   90.3190 N.am      6 SEP2        0.0000 
     49 CA        112.6385   40.9480   81.2185 C.3       4 GLC5        0.0000 
     50 CA        111.7880   40.3280   82.8190 C.3      12 GLL5        0.0000 
     51 CA        113.4890   41.5680   79.6180 C.3       8 GLP5        0.0000 
     52 CA        111.5950   40.9270   84.7935 C.3       4 GLC5        0.0000 
     53 CA        111.4020   41.5260   86.7680 C.3       8 GLP5        0.0000 
     54 O         108.2865   44.9920   85.9820 O.2       1 ALC1        0.0000 
     55 O         107.0810   44.7770   85.4420 O.2       9 ALL1        0.0000 
     56 O         109.4920   45.2070   86.5220 O.2       5 ALP1        0.0000 
     57 N         104.0185   43.8170   85.5395 N.am      2 SEC2        0.0000 
     58 N         104.9250   44.9200   86.0950 N.am     10 SEL2        0.0000 
     59 N         103.1120   42.7140   84.9840 N.am      6 SEP2        0.0000 
     60 N         104.1955   45.6395   85.1335 N.am      2 SEC2        0.0000 
     61 N         103.4660   46.3590   84.1720 N.am      6 SEP2        0.0000 
     62 N         104.2150   46.0255   86.9085 N.am      2 SEC2        0.0000 
     63 N         103.5050   47.1310   87.7220 N.am      6 SEP2        0.0000 
     64 CA        107.1025   45.0000   89.5095 C.3       4 GLC5        0.0000 
     65 CA        106.5470   44.3200   87.7510 C.3      12 GLL5        0.0000 
     66 CA        107.6580   45.6800   91.2680 C.3       8 GLP5        0.0000 
     67 CA        108.4325   43.4560   87.2750 C.3       4 GLC5        0.0000 
     68 CA        105.4087   45.6463   83.2477 C.3       4 GLC5        0.0000 
     69 CA        103.9170   46.7430   82.9310 C.3       8 GLP5        0.0000 
     70 CA        107.1028   45.9622   82.3222 C.3       4 GLC5        0.0000 
     71 CA        107.3050   47.3750   81.0800 C.3       8 GLP5        0.0000 
@<TRIPOS>BOND
@<TRIPOS>SUBSTRUCTURE
     1 ALC1       54 GROUP        1 X    ALC  0     ROOT ALC X 1
     2 SEC2       13 GROUP        1 X    SEC  0     **** SEC X 2
     3 LYC4       16 GROUP        1 X    LYC  0     **** LYC X 4
     4 GLC5        1 GROUP        1 X    GLC  0     **** GLC X 6
     5 ALP1       56 GROUP        1 Y    ALP  0     ROOT ALP Y 8
     6 SEP2       15 GROUP        1 Y    SEP  0     **** SEP Y 9
     7 LYP4       18 GROUP        1 Y    LYP  0     **** LYP Y 11
     8 GLP5        3 GROUP        1 Y    GLP  0     **** GLP Y 13
     9 ALL1       55 GROUP        1 Z    ALL  0     ROOT ALL Z 15
    10 SEL2       14 GROUP        1 Z    SEL  0     **** SEL Z 16
    11 LYL4       17 GROUP        1 Z    LYL  0     **** LYL Z 18
    12 GLL5        2 GROUP        1 Z    GLL  0     **** GLL Z 20
@<TRIPOS>SET

