#    Name: 3m4n_PA9_1_ligand
#    Modification time : Mon Mar 24 22:44:57 2014

@<TRIPOS>MOLECULE
3m4n_PA9_1_ligand
   33    32     1     0     0
SMALL
NO_CHARGES


@<TRIPOS>ATOM
      1 CA        108.4930   42.1650   82.1290 C.3       1 PA9345      0.0000 
      2 CB        108.2310   43.2290   83.1980 C.3       1 PA9345      0.0000 
      3 CG        106.9230   43.9560   83.0890 C.3       1 PA9345      0.0000 
      4 CD        106.8780   45.1430   84.0400 C.3       1 PA9345      0.0000 
      5 C         108.6080   42.7770   80.7230 C.2       1 PA9345      0.0000 
      6 O         107.6010   43.3220   80.2250 O.co2     1 PA9345      0.0000 
      7 OXT       109.7100   42.7070   80.1330 O.co2     1 PA9345      0.0000 
      8 C1        110.4210   40.5160   82.1600 C.2       1 PA9345      0.0000 
      9 O1        109.9070   39.7080   81.3920 O.2       1 PA9345      0.0000 
     10 P         105.9840   42.6420   88.1410 P.3       1 PA9345      0.0000 
     11 O1P       106.3290   41.7420   86.9020 O.co2     1 PA9345      0.0000 
     12 O2P       104.4090   42.6850   88.3890 O.co2     1 PA9345      0.0000 
     13 O3P       106.7490   42.1490   89.4700 O.co2     1 PA9345      0.0000 
     14 N1        109.8200   41.6530   82.4880 N.am      1 PA9345      0.0000 
     15 C2        111.7880   40.3280   82.8190 C.3       1 PA9345      0.0000 
     16 N2        107.0810   44.7770   85.4420 N.am      1 PA9345      0.0000 
     17 C3        106.1140   44.7020   86.3510 C.2       1 PA9345      0.0000 
     18 O2        104.9250   44.9200   86.0950 O.2       1 PA9345      0.0000 
     19 C4        106.5470   44.3200   87.7510 C.3       1 PA9345      0.0000 
     20 H         107.7764   41.4227   82.1665 H         1 PA9345      0.0000 
     21 H         109.0659   43.9648   83.1675 H         1 PA9345      0.0000 
     22 H         108.3006   42.7422   84.1968 H         1 PA9345      0.0000 
     23 H         106.1007   43.2770   83.3296 H         1 PA9345      0.0000 
     24 H         106.7830   44.3152   82.0660 H         1 PA9345      0.0000 
     25 H         105.9005   45.6497   83.9111 H         1 PA9345      0.0000 
     26 H         107.6477   45.8721   83.7161 H         1 PA9345      0.0000 
     27 H         110.3675   42.3596   83.1336 H         1 PA9345      0.0000 
     28 H         108.0889   44.5667   85.6982 H         1 PA9345      0.0000 
     29 H         107.6007   44.2382   87.8709 H         1 PA9345      0.0000 
     30 H         106.0881   44.8962   88.5183 H         1 PA9345      0.0000 
     31 H         112.5186   40.2445   82.1414 H         1 PA9345      0.0000 
     32 H         112.0240   41.0986   83.4110 H         1 PA9345      0.0000 
     33 H         111.8174   39.5040   83.3848 H         1 PA9345      0.0000 
@<TRIPOS>BOND
     1    2    1 1    
     2    5    1 1    
     3   14    1 1    
     4   20    1 1    
     5    3    2 1    
     6   21    2 1    
     7   22    2 1    
     8    4    3 1    
     9   23    3 1    
    10   24    3 1    
    11   16    4 1    
    12   25    4 1    
    13   26    4 1    
    14    6    5 ar   
    15    7    5 ar   
    16    9    8 2    
    17   14    8 am   
    18   15    8 1    
    19   11   10 ar   
    20   12   10 ar   
    21   13   10 ar   
    22   19   10 1    
    23   27   14 1    
    24   31   15 1    
    25   32   15 1    
    26   33   15 1    
    27   17   16 am   
    28   28   16 1    
    29   18   17 2    
    30   19   17 1    
    31   29   19 1    
    32   30   19 1    
@<TRIPOS>SUBSTRUCTURE
     1 PA9345      1 GROUP   
@<TRIPOS>SET

