#    Name: 4l8m_F46_1_INTS_M
#    Modification time : Tue Mar 25 09:53:48 2014

@<TRIPOS>MOLECULE
4l8m_F46_1_INTS_M
  114     0     9     0     0
SMALL
NO_CHARGES


@<TRIPOS>ATOM
      1 N           1.0235   -2.5010  -15.4620 N.am      2 SEC2        0.0000 
      2 N          -0.3600   -1.9840  -15.3160 N.am      8 SEL2        0.0000 
      3 N           2.4070   -3.0180  -15.6080 N.am      5 SEP2        0.0000 
      4 N          -2.2565    5.1915  -22.7355 N.am      2 SEC2        0.0000 
      5 N          -2.2630    3.9170  -23.1320 N.am      8 SEL2        0.0000 
      6 N          -2.2500    6.4660  -22.3390 N.am      5 SEP2        0.0000 
      7 N          -1.8240    5.0245  -24.0480 N.am      2 SEC2        0.0000 
      8 N          -1.3850    6.1320  -24.9640 N.am      5 SEP2        0.0000 
      9 CA          0.2115   -1.2800  -13.4300 C.3       3 GLC5        0.0000 
     10 CA         -0.1340   -3.3120  -12.7910 C.3       9 GLL5        0.0000 
     11 CA          0.5570    0.7520  -14.0690 C.3       6 GLP5        0.0000 
     12 CA         -2.0955    2.0015  -18.4425 C.3       3 GLC5        0.0000 
     13 CA         -2.7660    1.1720  -20.2540 C.3       9 GLL5        0.0000 
     14 CA         -1.4250    2.8310  -16.6310 C.3       6 GLP5        0.0000 
     15 CA         -2.1555   -2.0485  -22.9180 C.3       3 GLC5        0.0000 
     16 CA         -1.6390   -0.4590  -21.6510 C.3       9 GLL5        0.0000 
     17 CA         -2.6720   -3.6380  -24.1850 C.3       6 GLP5        0.0000 
     18 CA         -4.4090    2.1460  -26.0555 C.3       3 GLC5        0.0000 
     19 CA         -2.6160    3.0980  -25.6650 C.3       9 GLL5        0.0000 
     20 CA         -6.2020    1.1940  -26.4460 C.3       6 GLP5        0.0000 
     21 CA         -4.1330    3.8765  -24.9745 C.3       3 GLC5        0.0000 
     22 CA         -5.6500    4.6550  -24.2840 C.3       6 GLP5        0.0000 
     23 CA         -4.2670    1.5225  -28.0700 C.3       3 GLC5        0.0000 
     24 CA         -3.1940    3.0350  -29.2430 C.3       9 GLL5        0.0000 
     25 CA         -5.3400    0.0100  -26.8970 C.3       6 GLP5        0.0000 
     26 CA         -6.1500    2.9750  -27.8020 C.3       3 GLC5        0.0000 
     27 CA         -6.0980    4.7560  -29.1580 C.3       9 GLL5        0.0000 
     28 CA         -5.3765    2.1180  -28.2045 C.3       3 GLC5        0.0000 
     29 CA         -4.5510    3.0420  -29.9630 C.3       9 GLL5        0.0000 
     30 CA          1.8435    0.5065  -24.8200 C.3       3 GLC5        0.0000 
     31 CA         -0.0130    0.6940  -24.5250 C.3       9 GLL5        0.0000 
     32 CA          3.7000    0.3190  -25.1150 C.3       6 GLP5        0.0000 
     33 O          -3.2450   -4.0000  -14.7835 O.2       1 ALC1        0.0000 
     34 O          -2.4220   -3.0150  -15.3370 O.2       7 ALL1        0.0000 
     35 O          -4.0680   -4.9850  -14.2300 O.2       4 ALP1        0.0000 
     36 O          -1.0210   -2.3270  -19.6650 O.2       1 ALC1        0.0000 
     37 O          -2.2890   -1.1490  -19.6030 O.2       7 ALL1        0.0000 
     38 O           0.2470   -3.5050  -19.7270 O.2       4 ALP1        0.0000 
     39 CA         -3.8555   -1.5715  -21.0920 C.3       3 GLC5        0.0000 
     40 CA         -2.2600   -0.1210  -20.4560 C.3       9 GLL5        0.0000 
     41 CA         -5.4510   -3.0220  -21.7280 C.3       6 GLP5        0.0000 
     42 CA         -0.4310   -0.1855  -19.6485 C.3       3 GLC5        0.0000 
     43 CA          1.3980   -0.2500  -18.8410 C.3       6 GLP5        0.0000 
     44 CA         -1.5030   -1.2855  -23.8195 C.3       3 GLC5        0.0000 
     45 CA         -1.4970    0.4680  -22.6670 C.3       9 GLL5        0.0000 
     46 CA         -1.5090   -3.0390  -24.9720 C.3       6 GLP5        0.0000 
     47 CA          0.0085    2.5240  -21.8750 C.3       3 GLC5        0.0000 
     48 CA         -2.0020    1.7680  -22.4790 C.3       9 GLL5        0.0000 
     49 CA          2.0190    3.2800  -21.2710 C.3       6 GLP5        0.0000 
     50 CA         -5.0642   -3.2385  -16.4737 C.3       3 GLC5        0.0000 
     51 CA         -4.2010   -1.5980  -16.0340 C.3       9 GLL5        0.0000 
     52 CA         -5.6400   -4.7950  -17.4760 C.3       6 GLP5        0.0000 
     53 CA         -4.3628   -1.7575  -13.6552 C.3       3 GLC5        0.0000 
     54 CA         -4.2370   -1.8330  -11.8390 C.3       6 GLP5        0.0000 
     55 CA         -6.2642   -1.7655  -14.6852 C.3       3 GLC5        0.0000 
     56 CA         -4.7760   -1.7660  -14.9090 C.3       9 GLL5        0.0000 
     57 CA         -8.0400   -1.8490  -13.8990 C.3       6 GLP5        0.0000 
     58 CA         -4.6703    0.3100  -15.2703 C.3       3 GLC5        0.0000 
     59 CA         -4.8520    2.3020  -15.0690 C.3       6 GLP5        0.0000 
     60 CA         -1.8835   -5.6320  -12.2308 C.3       3 GLC5        0.0000 
     61 CA         -0.4490   -6.0690  -13.1220 C.3       9 GLL5        0.0000 
     62 CA         -3.6050   -5.4400  -11.9230 C.3       6 GLP5        0.0000 
     63 CA          0.8160   -5.3615  -10.1630 C.3       3 GLC5        0.0000 
     64 CA          0.1250   -5.5790  -11.9550 C.3       9 GLL5        0.0000 
     65 CA          1.4310   -5.8350   -8.4530 C.3       6 GLP5        0.0000 
     66 CA          1.3585   -5.4370  -13.3897 C.3       3 GLC5        0.0000 
     67 CA          2.8790   -5.0500  -14.2410 C.3       6 GLP5        0.0000 
     68 CA         -1.7668   -4.5973  -12.1070 C.3       3 GLC5        0.0000 
     69 CA          0.2770   -4.1970  -11.7910 C.3       9 GLL5        0.0000 
     70 CA          1.4752   -4.4023  -13.2660 C.3       3 GLC5        0.0000 
     71 CA         -2.1893   -4.9618  -12.9830 C.3       3 GLC5        0.0000 
     72 CA         -0.7040   -3.7960  -13.9610 C.3       9 GLL5        0.0000 
     73 CA          1.0528   -4.7668  -14.1420 C.3       3 GLC5        0.0000 
     74 CA         -0.8430   -5.1710  -14.1250 C.3       9 GLL5        0.0000 
     75 CA         -1.0408   -4.8853  -16.0185 C.3       3 GLC5        0.0000 
     76 CA         -1.3080   -5.2870  -17.9940 C.3       6 GLP5        0.0000 
     77 CA         -4.5213   -1.9715  -20.0415 C.3       3 GLC5        0.0000 
     78 CA         -2.9780   -1.2320  -18.4760 C.3       9 GLL5        0.0000 
     79 CA         -5.9607   -1.9370  -17.8235 C.3       3 GLC5        0.0000 
     80 CA         -4.2050   -0.6100  -18.2340 C.3       9 GLL5        0.0000 
     81 CA         -7.4080   -3.1770  -18.0340 C.3       6 GLP5        0.0000 
     82 CA         -4.6828    0.8025  -16.3410 C.3       3 GLC5        0.0000 
     83 CA         -4.8220   -0.7840  -16.9920 C.3       9 GLL5        0.0000 
     84 CA         -4.3995    2.1738  -20.7440 C.3       3 GLC5        0.0000 
     85 CA         -6.0950    2.7000  -20.7230 C.3       6 GLP5        0.0000 
     86 CA         -3.7135    1.1742  -27.0840 C.3       3 GLC5        0.0000 
     87 CA         -2.5370    2.8160  -27.0270 C.3       9 GLL5        0.0000 
     88 CA         -1.8215    4.2447  -26.8415 C.3       3 GLC5        0.0000 
     89 CA         -1.5560    6.1510  -26.4120 C.3       6 GLP5        0.0000 
     90 CA         -1.6193   -0.3010  -26.5577 C.3       3 GLC5        0.0000 
     91 CA         -0.8040    1.1750  -26.6400 C.3       9 GLL5        0.0000 
     92 CA         -2.0180   -2.1200  -26.0380 C.3       6 GLP5        0.0000 
     93 CA         -0.8382   -0.2310  -28.2238 C.3       3 GLC5        0.0000 
     94 CA         -0.4560   -1.9800  -29.3700 C.3       6 GLP5        0.0000 
     95 CA         -4.1575   -3.4598  -17.1927 C.3       3 GLC5        0.0000 
     96 CA         -2.3750   -2.0320  -17.5260 C.3       9 GLL5        0.0000 
     97 CA         -0.6393   -0.9410  -18.4210 C.3       3 GLC5        0.0000 
     98 CA          0.1375   -0.1608  -21.2145 C.3       3 GLC5        0.0000 
     99 CA          1.8430   -0.3260  -20.2700 C.3       6 GLP5        0.0000 
    100 CA         -1.8748    4.4570  -25.8182 C.3       3 GLC5        0.0000 
    101 CA         -1.7710    2.4280  -24.7840 C.3       9 GLL5        0.0000 
    102 CA         -7.4807    4.7707  -27.6713 C.3       3 GLC5        0.0000 
    103 CA         -8.7740    4.0250  -26.2070 C.3       6 GLP5        0.0000 
    104 CA         -6.2408    6.1903  -27.1948 C.3       3 GLC5        0.0000 
    105 CA         -6.2940    6.8640  -25.2540 C.3       6 GLP5        0.0000 
    106 CA         -1.2337   -0.5195  -25.4690 C.3       3 GLC5        0.0000 
    107 CA         -0.8860    1.4680  -25.2750 C.3       9 GLL5        0.0000 
    108 CA         -0.1689    3.1335  -27.0696 C.3       3 GLC5        0.0000 
    109 CA         -1.6370    1.8610  -27.5150 C.3       9 GLL5        0.0000 
    110 CA          1.5410    4.1000  -27.0870 C.3       6 GLP5        0.0000 
    111 CA         -1.6726   -2.5261  -12.1465 C.3       3 GLC5        0.0000 
    112 CA         -3.0290   -1.2770  -11.1670 C.3       6 GLP5        0.0000 
    113 CA          0.1062    3.0240  -26.0582 C.3       3 GLC5        0.0000 
    114 CA         -2.0669   -3.6058  -17.5705 C.3       3 GLC5        0.0000 
@<TRIPOS>BOND
@<TRIPOS>SUBSTRUCTURE
     1 ALC1       33 GROUP        1 X    ALC  0     ROOT ALC X 1
     2 SEC2        1 GROUP        1 X    SEC  0     **** SEC X 2
     3 GLC5        9 GROUP        1 X    GLC  0     **** GLC X 6
     4 ALP1       35 GROUP        1 Y    ALP  0     ROOT ALP Y 8
     5 SEP2        3 GROUP        1 Y    SEP  0     **** SEP Y 9
     6 GLP5       11 GROUP        1 Y    GLP  0     **** GLP Y 13
     7 ALL1       34 GROUP        1 Z    ALL  0     ROOT ALL Z 15
     8 SEL2        2 GROUP        1 Z    SEL  0     **** SEL Z 16
     9 GLL5       10 GROUP        1 Z    GLL  0     **** GLL Z 20
@<TRIPOS>SET

