#    Name: 4l8m_F46_1_ligand
#    Modification time : Tue Mar 25 09:53:48 2014

@<TRIPOS>MOLECULE
4l8m_F46_1_ligand
   73    78     1     0     0
SMALL
NO_CHARGES


@<TRIPOS>ATOM
      1 OAA        -0.3600   -1.9840  -15.3160 O.2       1 F46403      0.0000 
      2 OAB        -2.2630    3.9170  -23.1320 O.2       1 F46403      0.0000 
      3 FAC        -4.7760   -1.7660  -14.9090 F         1 F46403      0.0000 
      4 CAD         0.1250   -5.5790  -11.9550 C.ar      1 F46403      0.0000 
      5 CAE        -0.4490   -6.0690  -13.1220 C.ar      1 F46403      0.0000 
      6 CAF         0.2770   -4.1970  -11.7910 C.ar      1 F46403      0.0000 
      7 CAG        -0.8430   -5.1710  -14.1250 C.ar      1 F46403      0.0000 
      8 CAH        -0.1340   -3.3120  -12.7910 C.ar      1 F46403      0.0000 
      9 CAI        -4.2050   -0.6100  -18.2340 C.ar      1 F46403      0.0000 
     10 CAJ        -2.7660    1.1720  -20.2540 C.ar      1 F46403      0.0000 
     11 CAK        -4.8220   -0.7840  -16.9920 C.ar      1 F46403      0.0000 
     12 CAL        -1.6370    1.8610  -27.5150 C.ar      1 F46403      0.0000 
     13 CAM        -0.8040    1.1750  -26.6400 C.ar      1 F46403      0.0000 
     14 CAN        -2.6420    2.1230  -21.2760 C.ar      1 F46403      0.0000 
     15 CAO        -2.3750   -2.0320  -17.5260 C.ar      1 F46403      0.0000 
     16 CAP        -1.6390   -0.4590  -21.6510 C.ar      1 F46403      0.0000 
     17 CAQ        -2.6160    3.0980  -25.6650 C.ar      1 F46403      0.0000 
     18 CAR        -6.2770    6.2770  -29.1130 C.3       1 F46403      0.0000 
     19 CAS        -5.8590    6.2330  -31.5280 C.3       1 F46403      0.0000 
     20 CAT        -3.1940    3.0350  -29.2430 C.3       1 F46403      0.0000 
     21 CAU        -6.0980    4.7560  -29.1580 C.3       1 F46403      0.0000 
     22 CAV        -5.4320    4.7580  -31.4790 C.3       1 F46403      0.0000 
     23 CAW        -4.5510    3.0420  -29.9630 C.3       1 F46403      0.0000 
     24 CAX        -0.0130    0.6940  -24.5250 C.3       1 F46403      0.0000 
     25 NAY        -2.4220   -3.0150  -15.3370 N.am      1 F46403      0.0000 
     26 NAZ        -2.2890   -1.1490  -19.6030 N.pl3     1 F46403      0.0000 
     27 OBA        -5.5810    6.8960  -30.2340 O.3       1 F46403      0.0000 
     28 OBB        -3.3480    3.5000  -27.8810 O.3       1 F46403      0.0000 
     29 OBC        -0.8410   -0.1400  -23.7230 O.3       1 F46403      0.0000 
     30 CBD        -1.1180   -2.8900  -14.9500 C.2       1 F46403      0.0000 
     31 CBE        -1.9730    2.7710  -23.4390 C.2       1 F46403      0.0000 
     32 CBF        -2.9780   -1.2320  -18.4760 C.ar      1 F46403      0.0000 
     33 CBG        -2.2600   -0.1210  -20.4560 C.ar      1 F46403      0.0000 
     34 CBH        -4.2010   -1.5980  -16.0340 C.ar      1 F46403      0.0000 
     35 CBI        -2.5370    2.8160  -27.0270 C.ar      1 F46403      0.0000 
     36 CBJ        -0.7040   -3.7960  -13.9610 C.ar      1 F46403      0.0000 
     37 CBK        -0.8860    1.4680  -25.2750 C.ar      1 F46403      0.0000 
     38 CBL        -2.9750   -2.2170  -16.2930 C.ar      1 F46403      0.0000 
     39 CBM        -1.4970    0.4680  -22.6670 C.ar      1 F46403      0.0000 
     40 CBN        -2.0020    1.7680  -22.4790 C.ar      1 F46403      0.0000 
     41 CBO        -1.7710    2.4280  -24.7840 C.ar      1 F46403      0.0000 
     42 NBP        -5.0170    4.4280  -30.1060 N.4       1 F46403      0.0000 
     43 H           0.4352   -6.2187  -11.2196 H         1 F46403      0.0000 
     44 H          -0.5853   -7.0734  -13.2538 H         1 F46403      0.0000 
     45 H           0.6960   -3.8303  -10.9244 H         1 F46403      0.0000 
     46 H          -1.2450   -5.5435  -15.0037 H         1 F46403      0.0000 
     47 H          -0.0123   -2.2992  -12.6564 H         1 F46403      0.0000 
     48 H          -4.6450   -0.0367  -18.9534 H         1 F46403      0.0000 
     49 H          -3.2183    1.4161  -19.3741 H         1 F46403      0.0000 
     50 H          -5.7078   -0.3281  -16.7843 H         1 F46403      0.0000 
     51 H          -1.5961    1.6703  -28.5245 H         1 F46403      0.0000 
     52 H          -0.1491    0.4761  -26.9796 H         1 F46403      0.0000 
     53 H          -3.0114    3.0655  -21.1523 H         1 F46403      0.0000 
     54 H          -1.4759   -2.4930  -17.7344 H         1 F46403      0.0000 
     55 H          -1.2770   -1.4220  -21.7810 H         1 F46403      0.0000 
     56 H          -3.2850    3.7872  -25.3175 H         1 F46403      0.0000 
     57 H          -5.8840    6.6372  -28.1584 H         1 F46403      0.0000 
     58 H          -7.3481    6.4941  -29.1464 H         1 F46403      0.0000 
     59 H          -6.9253    6.2742  -31.7590 H         1 F46403      0.0000 
     60 H          -5.3108    6.7225  -32.3355 H         1 F46403      0.0000 
     61 H          -2.5110    3.6765  -29.8091 H         1 F46403      0.0000 
     62 H          -2.8034    2.0127  -29.2741 H         1 F46403      0.0000 
     63 H          -7.0366    4.3078  -29.4729 H         1 F46403      0.0000 
     64 H          -5.8530    4.4082  -28.1580 H         1 F46403      0.0000 
     65 H          -4.6121    4.6161  -32.1772 H         1 F46403      0.0000 
     66 H          -6.2759    4.1474  -31.7869 H         1 F46403      0.0000 
     67 H          -5.2525    2.4541  -29.3744 H         1 F46403      0.0000 
     68 H          -4.4233    2.5718  -30.9360 H         1 F46403      0.0000 
     69 H           0.6328    0.0817  -25.1632 H         1 F46403      0.0000 
     70 H           0.6284    1.3122  -23.8881 H         1 F46403      0.0000 
     71 H          -3.0180   -3.7524  -14.8809 H         1 F46403      0.0000 
     72 H          -1.6730   -2.0164  -19.8702 H         1 F46403      0.0000 
     73 H          -4.1542    5.1026  -29.8550 H         1 F46403      0.0000 
@<TRIPOS>BOND
     1   30    1 2    
     2   31    2 2    
     3   34    3 1    
     4    5    4 ar   
     5    6    4 ar   
     6   43    4 1    
     7    7    5 ar   
     8   44    5 1    
     9    8    6 ar   
    10   45    6 1    
    11   36    7 ar   
    12   46    7 1    
    13   36    8 ar   
    14   47    8 1    
    15   11    9 ar   
    16   32    9 ar   
    17   48    9 1    
    18   14   10 ar   
    19   33   10 ar   
    20   49   10 1    
    21   34   11 ar   
    22   50   11 1    
    23   13   12 ar   
    24   35   12 ar   
    25   51   12 1    
    26   37   13 ar   
    27   52   13 1    
    28   40   14 ar   
    29   53   14 1    
    30   32   15 ar   
    31   38   15 ar   
    32   54   15 1    
    33   33   16 ar   
    34   39   16 ar   
    35   55   16 1    
    36   35   17 ar   
    37   41   17 ar   
    38   56   17 1    
    39   21   18 1    
    40   27   18 1    
    41   57   18 1    
    42   58   18 1    
    43   22   19 1    
    44   27   19 1    
    45   59   19 1    
    46   60   19 1    
    47   23   20 1    
    48   28   20 1    
    49   61   20 1    
    50   62   20 1    
    51   42   21 1    
    52   63   21 1    
    53   64   21 1    
    54   42   22 1    
    55   65   22 1    
    56   66   22 1    
    57   42   23 1    
    58   67   23 1    
    59   68   23 1    
    60   29   24 1    
    61   37   24 1    
    62   69   24 1    
    63   70   24 1    
    64   30   25 am   
    65   38   25 1    
    66   71   25 1    
    67   32   26 1    
    68   33   26 1    
    69   72   26 1    
    70   35   28 1    
    71   39   29 1    
    72   36   30 1    
    73   40   31 1    
    74   41   31 1    
    75   38   34 ar   
    76   41   37 ar   
    77   40   39 ar   
    78   73   42 1    
@<TRIPOS>SUBSTRUCTURE
     1 F46403      1 GROUP   
@<TRIPOS>SET

