#    Name: 2fxe_DR7_1_INTS_M
#    Modification time : Tue Mar 25 13:12:59 2014

@<TRIPOS>MOLECULE
2fxe_DR7_1_INTS_M
  115     0     9     0     0
SMALL
NO_CHARGES


@<TRIPOS>ATOM
      1 CA          7.3800   -7.6200   20.2585 C.3       3 GLC5        0.0000 
      2 CA          5.9380   -8.2370   18.8300 C.3       9 GLL5        0.0000 
      3 CA          8.8220   -7.0030   21.6870 C.3       6 GLP5        0.0000 
      4 N           7.7025   -5.2055   19.7710 N.am      2 SEC2        0.0000 
      5 N           6.9400   -5.7400   18.5940 N.am      8 SEL2        0.0000 
      6 N           8.4650   -4.6710   20.9480 N.am      5 SEP2        0.0000 
      7 O           6.8370   -6.8260   15.2855 O.2       1 ALC1        0.0000 
      8 O           7.0690   -5.8770   16.3590 O.2       7 ALL1        0.0000 
      9 O           6.6050   -7.7750   14.2120 O.2       4 ALP1        0.0000 
     10 CA          7.6835   -3.5140   18.0400 C.3       3 GLC5        0.0000 
     11 CA          7.4530   -4.4790   16.2070 C.3       9 GLL5        0.0000 
     12 CA          7.9140   -2.5490   19.8730 C.3       6 GLP5        0.0000 
     13 CA         11.4250   -5.6125   18.1045 C.3       3 GLC5        0.0000 
     14 CA          9.8620   -4.9150   16.7120 C.3       9 GLL5        0.0000 
     15 CA         12.9880   -6.3100   19.4970 C.3       6 GLP5        0.0000 
     16 CA         11.7255   -4.4170   16.1260 C.3       3 GLC5        0.0000 
     17 CA         13.5890   -3.9190   15.5400 C.3       6 GLP5        0.0000 
     18 CA         11.2695   -5.9390   15.3345 C.3       3 GLC5        0.0000 
     19 CA         12.6770   -6.9630   13.9570 C.3       6 GLP5        0.0000 
     20 CA         10.8695   -6.0945   14.1560 C.3       3 GLC5        0.0000 
     21 CA          9.0620   -5.2260   14.3550 C.3       9 GLL5        0.0000 
     22 CA          7.3650   -5.7480   13.2205 C.3       3 GLC5        0.0000 
     23 CA          5.6680   -6.2700   12.0860 C.3       6 GLP5        0.0000 
     24 CA          9.2765   -4.1905   12.8110 C.3       3 GLC5        0.0000 
     25 CA          9.4910   -3.1550   11.2670 C.3       6 GLP5        0.0000 
     26 CA         11.4160   -3.4205   15.4335 C.3       3 GLC5        0.0000 
     27 CA          9.2430   -2.9220   15.3270 C.3       9 GLL5        0.0000 
     28 CA          9.9965   -1.4790   14.7720 C.3       3 GLC5        0.0000 
     29 CA         10.7500   -0.0360   14.2170 C.3       6 GLP5        0.0000 
     30 CA          9.3670   -3.0385   13.2970 C.3       3 GLC5        0.0000 
     31 O           5.5380   -2.7290   17.5965 O.2       1 ALC1        0.0000 
     32 O           5.8500   -2.6890   15.9740 O.2       7 ALL1        0.0000 
     33 O           5.2260   -2.7690   19.2190 O.2       4 ALP1        0.0000 
     34 CA          1.6080   -7.0860   13.4135 C.3       3 GLC5        0.0000 
     35 CA          2.6580   -5.8920   14.3620 C.3       9 GLL5        0.0000 
     36 CA          0.5580   -8.2800   12.4650 C.3       6 GLP5        0.0000 
     37 CA          1.5365   -7.8050   14.6570 C.3       3 GLC5        0.0000 
     38 CA          2.8740   -6.7740   15.5070 C.3       9 GLL5        0.0000 
     39 CA          0.1990   -8.8360   13.8070 C.3       6 GLP5        0.0000 
     40 CA          2.4170   -3.9105   18.6740 C.3       3 GLC5        0.0000 
     41 CA          3.3360   -4.8540   17.0360 C.3       9 GLL5        0.0000 
     42 CA          1.4980   -2.9670   20.3120 C.3       6 GLP5        0.0000 
     43 N           4.2445    0.6795   17.6960 N.am      2 SEC2        0.0000 
     44 N           4.9650   -0.2290   17.0700 N.am      8 SEL2        0.0000 
     45 N           3.5240    1.5880   18.3220 N.am      5 SEP2        0.0000 
     46 O           6.3510    0.2985   17.2035 O.2       1 ALC1        0.0000 
     47 O           4.9650   -0.2290   17.0700 O.2       7 ALL1        0.0000 
     48 O           7.7370    0.8260   17.3370 O.2       4 ALP1        0.0000 
     49 O           4.9970    2.2585   13.9385 O.2       1 ALC1        0.0000 
     50 O           4.9250    0.8830   13.1800 O.2       7 ALL1        0.0000 
     51 O           5.0690    3.6340   14.6970 O.2       4 ALP1        0.0000 
     52 CA          2.7590    2.9000   13.3990 C.3       3 GLC5        0.0000 
     53 CA          3.1660    1.7710   11.8020 C.3       9 GLL5        0.0000 
     54 CA          2.3520    4.0290   14.9960 C.3       6 GLP5        0.0000 
     55 CA          2.2170   -1.2885    9.6650 C.3       3 GLC5        0.0000 
     56 CA          1.5420    0.5020   10.2530 C.3       9 GLL5        0.0000 
     57 CA          2.8920   -3.0790    9.0770 C.3       6 GLP5        0.0000 
     58 CA         -0.3385    0.2060    9.3990 C.3       3 GLC5        0.0000 
     59 CA         -2.2190   -0.0900    8.5450 C.3       6 GLP5        0.0000 
     60 CA          0.4700   -0.9535   13.9710 C.3       3 GLC5        0.0000 
     61 CA          1.2920    0.3280   12.7590 C.3       9 GLL5        0.0000 
     62 CA         -0.3520   -2.2350   15.1830 C.3       6 GLP5        0.0000 
     63 CA         -0.9420    3.7265   11.4125 C.3       3 GLC5        0.0000 
     64 CA          0.7810    2.4800   11.5760 C.3       9 GLL5        0.0000 
     65 CA         -2.6650    4.9730   11.2490 C.3       6 GLP5        0.0000 
     66 CA         -1.1890    1.4230   11.7445 C.3       3 GLC5        0.0000 
     67 CA         -3.1590    0.3660   11.9130 C.3       6 GLP5        0.0000 
     68 O           3.6800    1.7385    9.3040 O.2       1 ALC1        0.0000 
     69 O           3.6180    2.4820   10.6020 O.2       7 ALL1        0.0000 
     70 O           3.7420    0.9950    8.0060 O.2       4 ALP1        0.0000 
     71 N           2.5275    5.1950   12.3765 N.am      2 SEC2        0.0000 
     72 N           3.2660    4.5910   11.3370 N.am      8 SEL2        0.0000 
     73 N           1.7890    5.7990   13.4160 N.am      5 SEP2        0.0000 
     74 CA          2.8580    6.4805   10.2620 C.3       3 GLC5        0.0000 
     75 CA          4.3080    5.6580    9.0300 C.3       9 GLL5        0.0000 
     76 CA          1.4080    7.3030   11.4940 C.3       6 GLP5        0.0000 
     77 CA          8.5925   -1.2295   10.8980 C.3       3 GLC5        0.0000 
     78 CA          7.6940    0.6960   10.5290 C.3       9 GLL5        0.0000 
     79 CA          8.0640    3.8155   13.5740 C.3       3 GLC5        0.0000 
     80 CA          7.3370    2.7630   11.9840 C.3       9 GLL5        0.0000 
     81 CA          8.7910    4.8680   15.1640 C.3       6 GLP5        0.0000 
     82 CA          9.7665    4.2040    8.4615 C.3       3 GLC5        0.0000 
     83 CA          8.3550    3.6680    6.9500 C.3       9 GLL5        0.0000 
     84 CA         11.1780    4.7400    9.9730 C.3       6 GLP5        0.0000 
     85 CA          9.6105    5.6185    8.8065 C.3       3 GLC5        0.0000 
     86 CA          8.0430    6.4970    7.6400 C.3       9 GLL5        0.0000 
     87 CA          9.1705   -2.7618   17.4829 C.3       3 GLC5        0.0000 
     88 CA          9.0320   -1.7370   19.2130 C.3       6 GLP5        0.0000 
     89 CA          2.5877   -5.1510   12.4635 C.3       3 GLC5        0.0000 
     90 CA          2.4460   -5.1270   10.4680 C.3       6 GLP5        0.0000 
     91 CA          1.3422   -3.0377   15.2271 C.3       3 GLC5        0.0000 
     92 CA          2.8010   -4.4580   14.5560 C.3       9 GLL5        0.0000 
     93 CA          1.1690   -6.0695   16.2203 C.3       3 GLC5        0.0000 
     94 CA         -0.4280   -5.8060   17.5060 C.3       6 GLP5        0.0000 
     95 CA          4.2349   -6.1223   13.5345 C.3       3 GLC5        0.0000 
     96 CA          1.3964   -5.5768   17.0793 C.3       3 GLC5        0.0000 
     97 CA          3.1570   -3.9660   15.8860 C.3       9 GLL5        0.0000 
     98 CA          1.2011    2.3312   13.6346 C.3       3 GLC5        0.0000 
     99 CA          1.2590    3.0270   15.3930 C.3       6 GLP5        0.0000 
    100 CA          9.0785    0.4230   13.3320 C.3       3 GLC5        0.0000 
    101 CA          7.3510    0.4450   13.0660 C.3       9 GLL5        0.0000 
    102 CA          9.3791    2.1261   10.9949 C.3       3 GLC5        0.0000 
    103 CA          7.8400    1.5570    9.3610 C.3       9 GLL5        0.0000 
    104 CA         11.0490    2.9700   11.7200 C.3       6 GLP5        0.0000 
    105 CA          6.5936    0.1151    9.4654 C.3       3 GLC5        0.0000 
    106 CA          7.4630    1.3190   11.8280 C.3       9 GLL5        0.0000 
    107 CA          5.4780   -1.0520    8.6610 C.3       6 GLP5        0.0000 
    108 CA          9.2297    3.0738   11.5578 C.3       3 GLC5        0.0000 
    109 CA          9.2205    1.3709    8.7205 C.3       3 GLC5        0.0000 
    110 CA          7.7690    3.0310    9.4850 C.3       9 GLL5        0.0000 
    111 CA         10.6730    0.6630    7.7260 C.3       6 GLP5        0.0000 
    112 CA          9.5340    4.1342    9.4413 C.3       3 GLC5        0.0000 
    113 CA          9.8322    2.9857    6.8325 C.3       3 GLC5        0.0000 
    114 CA          8.0110    4.0260    8.3340 C.3       9 GLL5        0.0000 
    115 CA         11.3100    1.6800    6.8590 C.3       6 GLP5        0.0000 
@<TRIPOS>BOND
@<TRIPOS>SUBSTRUCTURE
     1 ALC1        7 GROUP        1 X    ALC  0     ROOT ALC X 1
     2 SEC2        4 GROUP        1 X    SEC  0     **** SEC X 2
     3 GLC5        1 GROUP        1 X    GLC  0     **** GLC X 6
     4 ALP1        9 GROUP        1 Y    ALP  0     ROOT ALP Y 8
     5 SEP2        6 GROUP        1 Y    SEP  0     **** SEP Y 9
     6 GLP5        3 GROUP        1 Y    GLP  0     **** GLP Y 13
     7 ALL1        8 GROUP        1 Z    ALL  0     ROOT ALL Z 15
     8 SEL2        5 GROUP        1 Z    SEL  0     **** SEL Z 16
     9 GLL5        2 GROUP        1 Z    GLL  0     **** GLL Z 20
@<TRIPOS>SET

