#    Name: 2fxe_DR7_1_ligand
#    Modification time : Tue Mar 25 13:12:59 2014

@<TRIPOS>MOLECULE
2fxe_DR7_1_ligand
  104   106     1     0     0
SMALL
NO_CHARGES


@<TRIPOS>ATOM
      1 CAA         5.9380   -8.2370   18.8300 C.3       1 DR7102      0.0000 
      2 OBI         6.3300   -7.5940   17.5800 O.3       1 DR7102      0.0000 
      3 CBK         6.7920   -6.3550   17.5790 C.2       1 DR7102      0.0000 
      4 OAI         6.9400   -5.7400   18.5940 O.2       1 DR7102      0.0000 
      5 N           7.0690   -5.8770   16.3590 N.am      1 DR7102      0.0000 
      6 CA          7.4530   -4.4790   16.2070 C.3       1 DR7102      0.0000 
      7 CB          8.8880   -4.3870   15.6450 C.3       1 DR7102      0.0000 
      8 CAE         9.8620   -4.9150   16.7120 C.3       1 DR7102      0.0000 
      9 CG2         9.0620   -5.2260   14.3550 C.3       1 DR7102      0.0000 
     10 CG1         9.2430   -2.9220   15.3270 C.3       1 DR7102      0.0000 
     11 C           6.4340   -3.7350   15.3450 C.2       1 DR7102      0.0000 
     12 O           6.1910   -4.1040   14.1940 O.2       1 DR7102      0.0000 
     13 NBG         5.8500   -2.6890   15.9740 N.am      1 DR7102      0.0000 
     14 CBT         4.6770   -1.9840   15.4220 C.3       1 DR7102      0.0000 
     15 CBA         3.3870   -2.4800   16.0870 C.3       1 DR7102      0.0000 
     16 CBO         3.1570   -3.9660   15.8860 C.ar      1 DR7102      0.0000 
     17 CAT         2.8010   -4.4580   14.5560 C.ar      1 DR7102      0.0000 
     18 CAP         2.6580   -5.8920   14.3620 C.ar      1 DR7102      0.0000 
     19 CAN         2.8740   -6.7740   15.5070 C.ar      1 DR7102      0.0000 
     20 CAQ         3.1950   -6.2850   16.8440 C.ar      1 DR7102      0.0000 
     21 CAU         3.3360   -4.8540   17.0360 C.ar      1 DR7102      0.0000 
     22 CBS         4.8520   -0.4690   15.6610 C.3       1 DR7102      0.0000 
     23 OAM         4.9650   -0.2290   17.0700 O.3       1 DR7102      0.0000 
     24 CBC         6.1180    0.0400   14.9720 C.3       1 DR7102      0.0000 
     25 NBW         6.0010   -0.0020   13.5050 N.4       1 DR7102      0.0000 
     26 NBH         4.9250    0.8830   13.1800 N.am      1 DR7102      0.0000 
     27 CBN         4.1330    0.6350   12.1310 C.2       1 DR7102      0.0000 
     28 OAL         4.1540   -0.3960   11.4580 O.2       1 DR7102      0.0000 
     29 CBV         3.1660    1.7710   11.8020 C.3       1 DR7102      0.0000 
     30 CBY         1.7190    1.2540   11.5940 C.3       1 DR7102      0.0000 
     31 CAH         1.5420    0.5020   10.2530 C.3       1 DR7102      0.0000 
     32 CAF         1.2920    0.3280   12.7590 C.3       1 DR7102      0.0000 
     33 CAG         0.7810    2.4800   11.5760 C.3       1 DR7102      0.0000 
     34 NBF         3.6180    2.4820   10.6020 N.am      1 DR7102      0.0000 
     35 CBL         3.6250    3.8260   10.4880 C.2       1 DR7102      0.0000 
     36 OAJ         3.2660    4.5910   11.3370 O.2       1 DR7102      0.0000 
     37 OBJ         4.0950    4.2440    9.3190 O.3       1 DR7102      0.0000 
     38 CAB         4.3080    5.6580    9.0300 C.3       1 DR7102      0.0000 
     39 CBB         7.3510    0.4450   13.0660 C.3       1 DR7102      0.0000 
     40 CBP         7.4630    1.3190   11.8280 C.ar      1 DR7102      0.0000 
     41 CAW         7.6940    0.6960   10.5290 C.ar      1 DR7102      0.0000 
     42 CAY         7.8400    1.5570    9.3610 C.ar      1 DR7102      0.0000 
     43 CAX         7.3370    2.7630   11.9840 C.ar      1 DR7102      0.0000 
     44 CAZ         7.4840    3.5920   10.8070 C.ar      1 DR7102      0.0000 
     45 CBQ         7.7690    3.0310    9.4850 C.ar      1 DR7102      0.0000 
     46 CBR         8.0110    4.0260    8.3340 C.ar      1 DR7102      0.0000 
     47 CAV         8.3550    3.6680    6.9500 C.ar      1 DR7102      0.0000 
     48 CAR         8.5260    4.7360    5.9700 C.ar      1 DR7102      0.0000 
     49 CAO         8.3750    6.1540    6.2710 C.ar      1 DR7102      0.0000 
     50 CAS         8.0430    6.4970    7.6400 C.ar      1 DR7102      0.0000 
     51 NBD         7.8890    5.4650    8.5630 N.ar      1 DR7102      0.0000 
     52 H           7.0270   -6.4442   15.5084 H         1 DR7102      0.0000 
     53 H           7.4641   -4.0012   17.1966 H         1 DR7102      0.0000 
     54 H           6.2032   -2.3293   16.8840 H         1 DR7102      0.0000 
     55 H           4.6075   -2.1482   14.3626 H         1 DR7102      0.0000 
     56 H           2.5387   -1.9203   15.6724 H         1 DR7102      0.0000 
     57 H           3.4371   -2.2608   17.1613 H         1 DR7102      0.0000 
     58 H           2.6605   -3.8231   13.8031 H         1 DR7102      0.0000 
     59 H           2.4190   -6.2669   13.4725 H         1 DR7102      0.0000 
     60 H           2.7957   -7.7898   15.3626 H         1 DR7102      0.0000 
     61 H           3.3131   -6.9188   17.6005 H         1 DR7102      0.0000 
     62 H           3.5511   -4.4758   17.9337 H         1 DR7102      0.0000 
     63 H           4.0056    0.0378   15.2446 H         1 DR7102      0.0000 
     64 H           6.9643   -0.5767   15.3082 H         1 DR7102      0.0000 
     65 H           6.3059    1.0684   15.3136 H         1 DR7102      0.0000 
     66 H           5.8290   -1.0000   13.2122 H         1 DR7102      0.0000 
     67 H           4.7920    1.7112   13.7870 H         1 DR7102      0.0000 
     68 H           3.1488    2.4574   12.6467 H         1 DR7102      0.0000 
     69 H           3.9449    1.8690    9.8148 H         1 DR7102      0.0000 
     70 H           8.0059   -0.4612   12.9095 H         1 DR7102      0.0000 
     71 H           7.8544    0.9875   13.9186 H         1 DR7102      0.0000 
     72 H           7.7505   -0.2930   10.4424 H         1 DR7102      0.0000 
     73 H           7.9922    1.1510    8.4491 H         1 DR7102      0.0000 
     74 H           7.1552    3.1622   12.8760 H         1 DR7102      0.0000 
     75 H           7.3866    4.6073   10.8944 H         1 DR7102      0.0000 
     76 H           8.4680    2.7145    6.6913 H         1 DR7102      0.0000 
     77 H           8.7702    4.4683    4.9991 H         1 DR7102      0.0000 
     78 H           8.4931    6.8410    5.5777 H         1 DR7102      0.0000 
     79 H           7.9319    7.4656    7.8916 H         1 DR7102      0.0000 
     80 H           6.7027   -8.2993   19.4714 H         1 DR7102      0.0000 
     81 H           5.2075   -7.7348   19.2928 H         1 DR7102      0.0000 
     82 H           5.6045   -9.1678   18.6802 H         1 DR7102      0.0000 
     83 H          10.8114   -4.8753   16.4004 H         1 DR7102      0.0000 
     84 H           9.8089   -4.3848   17.5582 H         1 DR7102      0.0000 
     85 H           9.6713   -5.8673   16.9503 H         1 DR7102      0.0000 
     86 H           9.9927   -5.1642   13.9945 H         1 DR7102      0.0000 
     87 H           8.8730   -6.1950   14.5139 H         1 DR7102      0.0000 
     88 H           8.4455   -4.9224   13.6285 H         1 DR7102      0.0000 
     89 H          10.1679   -2.8360   14.9566 H         1 DR7102      0.0000 
     90 H           8.6193   -2.5267   14.6527 H         1 DR7102      0.0000 
     91 H           9.1986   -2.3438   16.1417 H         1 DR7102      0.0000 
     92 H           1.7544    1.0855    9.4691 H         1 DR7102      0.0000 
     93 H           2.1398   -0.2975   10.1938 H         1 DR7102      0.0000 
     94 H           0.6044    0.1766   10.1306 H         1 DR7102      0.0000 
     95 H           1.8887   -0.4708   12.8364 H         1 DR7102      0.0000 
     96 H           1.3205    0.8015   13.6393 H         1 DR7102      0.0000 
     97 H           0.3596   -0.0131   12.6397 H         1 DR7102      0.0000 
     98 H           0.8289    2.9968   12.4307 H         1 DR7102      0.0000 
     99 H           1.0117    3.1133   10.8373 H         1 DR7102      0.0000 
    100 H          -0.1745    2.2147   11.4470 H         1 DR7102      0.0000 
    101 H           4.9610    6.0724    9.6640 H         1 DR7102      0.0000 
    102 H           4.6661    5.7986    8.1070 H         1 DR7102      0.0000 
    103 H           3.4596    6.1829    9.0983 H         1 DR7102      0.0000 
    104 H           5.9220    0.0234   17.2135 H         1 DR7102      0.0000 
@<TRIPOS>BOND
     1    2    1 1    
     2   80    1 1    
     3   81    1 1    
     4   82    1 1    
     5    3    2 1    
     6    4    3 2    
     7    5    3 am   
     8    6    5 1    
     9   52    5 1    
    10    7    6 1    
    11   11    6 1    
    12   53    6 1    
    13    8    7 1    
    14    9    7 1    
    15   10    7 1    
    16   83    8 1    
    17   84    8 1    
    18   85    8 1    
    19   86    9 1    
    20   87    9 1    
    21   88    9 1    
    22   89   10 1    
    23   90   10 1    
    24   91   10 1    
    25   12   11 2    
    26   13   11 am   
    27   14   13 1    
    28   54   13 1    
    29   15   14 1    
    30   22   14 1    
    31   55   14 1    
    32   16   15 1    
    33   56   15 1    
    34   57   15 1    
    35   17   16 ar   
    36   21   16 ar   
    37   18   17 ar   
    38   58   17 1    
    39   19   18 ar   
    40   59   18 1    
    41   20   19 ar   
    42   60   19 1    
    43   21   20 ar   
    44   61   20 1    
    45   62   21 1    
    46   23   22 1    
    47   24   22 1    
    48   63   22 1    
    49  104   23 1    
    50   25   24 1    
    51   64   24 1    
    52   65   24 1    
    53   26   25 1    
    54   39   25 1    
    55   66   25 1    
    56   27   26 am   
    57   67   26 1    
    58   28   27 2    
    59   29   27 1    
    60   30   29 1    
    61   34   29 1    
    62   68   29 1    
    63   31   30 1    
    64   32   30 1    
    65   33   30 1    
    66   92   31 1    
    67   93   31 1    
    68   94   31 1    
    69   95   32 1    
    70   96   32 1    
    71   97   32 1    
    72   98   33 1    
    73   99   33 1    
    74  100   33 1    
    75   35   34 am   
    76   69   34 1    
    77   36   35 2    
    78   37   35 1    
    79   38   37 1    
    80  101   38 1    
    81  102   38 1    
    82  103   38 1    
    83   40   39 1    
    84   70   39 1    
    85   71   39 1    
    86   41   40 ar   
    87   43   40 ar   
    88   42   41 ar   
    89   72   41 1    
    90   45   42 ar   
    91   73   42 1    
    92   44   43 ar   
    93   74   43 1    
    94   45   44 ar   
    95   75   44 1    
    96   46   45 1    
    97   47   46 ar   
    98   51   46 ar   
    99   48   47 ar   
   100   76   47 1    
   101   49   48 ar   
   102   77   48 1    
   103   50   49 ar   
   104   78   49 1    
   105   51   50 ar   
   106   79   50 1    
@<TRIPOS>SUBSTRUCTURE
     1 DR7102      1 GROUP   
@<TRIPOS>SET

