#    Name: 4jsr_1NQ_1_INTS_M
#    Modification time : Tue Mar 25 06:16:18 2014

@<TRIPOS>MOLECULE
4jsr_1NQ_1_INTS_M
   77     0     9     0     0
SMALL
NO_CHARGES


@<TRIPOS>ATOM
      1 CA         19.8090   54.1995   -4.7180 C.3       3 GLC5        0.0000 
      2 CA         21.1630   54.2790   -6.4830 C.3       9 GLL5        0.0000 
      3 CA         18.4550   54.1200   -2.9530 C.3       6 GLP5        0.0000 
      4 CA         20.8795   52.4495   -9.5720 C.3       3 GLC5        0.0000 
      5 CA         21.3500   53.3760   -7.7050 C.3       9 GLL5        0.0000 
      6 CA         20.4090   51.5230  -11.4390 C.3       6 GLP5        0.0000 
      7 CA         19.7225   52.1230   -7.2820 C.3       3 GLC5        0.0000 
      8 CA         18.0950   50.8700   -6.8590 C.3       6 GLP5        0.0000 
      9 O          22.2390   51.4845   -8.5860 O.2       1 ALC1        0.0000 
     10 O          21.9500   52.1010   -7.2860 O.2       7 ALL1        0.0000 
     11 O          22.5280   50.8680   -9.8860 O.2       4 ALP1        0.0000 
     12 CA         25.5710   48.4910   -6.8995 C.3       3 GLC5        0.0000 
     13 CA         23.5990   48.3780   -6.2060 C.3       9 GLL5        0.0000 
     14 CA         27.5430   48.6040   -7.5930 C.3       6 GLP5        0.0000 
     15 O          24.2430   45.5240   -6.0655 O.2       1 ALC1        0.0000 
     16 O          24.6380   46.1250   -4.7530 O.2       7 ALL1        0.0000 
     17 O          23.8480   44.9230   -7.3780 O.2       4 ALP1        0.0000 
     18 CA         26.5885   46.2780   -3.6980 C.3       3 GLC5        0.0000 
     19 CA         25.2300   44.9340   -4.1270 C.3       9 GLL5        0.0000 
     20 CA         27.9470   47.6220   -3.2690 C.3       6 GLP5        0.0000 
     21 CA         22.0480   44.2605   -3.7445 C.3       3 GLC5        0.0000 
     22 CA         24.1200   44.0600   -3.5400 C.3       9 GLL5        0.0000 
     23 CA         19.9760   44.4610   -3.9490 C.3       6 GLP5        0.0000 
     24 CA         23.8005   42.5775   -5.1875 C.3       3 GLC5        0.0000 
     25 CA         23.4810   41.0950   -6.8350 C.3       6 GLP5        0.0000 
     26 CA         21.9675   45.0645   -2.5780 C.3       3 GLC5        0.0000 
     27 CA         23.7960   44.4750   -2.1040 C.3       9 GLL5        0.0000 
     28 CA         20.1390   45.6540   -3.0520 C.3       6 GLP5        0.0000 
     29 CA         21.8170   42.1580   -2.4605 C.3       3 GLC5        0.0000 
     30 CA         22.8210   43.4690   -1.4890 C.3       9 GLL5        0.0000 
     31 CA         20.8130   40.8470   -3.4320 C.3       6 GLP5        0.0000 
     32 CA         25.3505   42.5960   -0.3700 C.3       3 GLC5        0.0000 
     33 CA         25.0840   44.5090   -1.2790 C.3       9 GLL5        0.0000 
     34 CA         25.6170   40.6830    0.5390 C.3       6 GLP5        0.0000 
     35 CA         26.3870   43.2155   -1.8655 C.3       3 GLC5        0.0000 
     36 CA         27.6900   41.9220   -2.4520 C.3       6 GLP5        0.0000 
     37 CA         25.6520   43.1550    0.7805 C.3       3 GLC5        0.0000 
     38 CA         24.7990   44.9150    0.1690 C.3       9 GLL5        0.0000 
     39 CA         26.5050   41.3950    1.3920 C.3       6 GLP5        0.0000 
     40 CA         23.0865   42.8760    5.2780 C.3       3 GLC5        0.0000 
     41 CA         24.8640   43.3910    4.0590 C.3       9 GLL5        0.0000 
     42 CA         21.3090   42.3610    6.4970 C.3       6 GLP5        0.0000 
     43 CA         24.9995   42.0030    5.7845 C.3       3 GLC5        0.0000 
     44 CA         25.1350   40.6150    7.5100 C.3       6 GLP5        0.0000 
     45 CA         26.3460   42.4625    3.7725 C.3       3 GLC5        0.0000 
     46 CA         27.8280   41.5340    3.4860 C.3       6 GLP5        0.0000 
     47 N          25.4670   41.6235    4.9905 N.am      2 SEC2        0.0000 
     48 N          24.2340   42.2710    4.3740 N.am      8 SEL2        0.0000 
     49 N          26.7000   40.9760    5.6070 N.am      5 SEP2        0.0000 
     50 CA         24.2670   41.1405    5.5125 C.3       3 GLC5        0.0000 
     51 CA         23.3990   41.6660    3.5150 C.3       9 GLL5        0.0000 
     52 CA         25.6135   41.6000    3.5005 C.3       3 GLC5        0.0000 
     53 CA         22.0370   40.2010   -0.3135 C.3       3 GLC5        0.0000 
     54 CA         22.1380   41.3090    1.4050 C.3       9 GLL5        0.0000 
     55 CA         21.9360   39.0930   -2.0320 C.3       6 GLP5        0.0000 
     56 N          19.9490   39.2440    0.3050 N.am      2 SEC2        0.0000 
     57 N          20.5150   38.6050    1.4890 N.am      8 SEL2        0.0000 
     58 N          19.3830   39.8830   -0.8790 N.am      5 SEP2        0.0000 
     59 N          19.7795   37.8625    0.4055 N.am      2 SEC2        0.0000 
     60 N          19.0440   37.1200   -0.6780 N.am      5 SEP2        0.0000 
     61 O          19.5790   37.5085    3.4140 O.2       1 ALC1        0.0000 
     62 O          20.8800   38.2920    3.6980 O.2       7 ALL1        0.0000 
     63 O          18.2780   36.7250    3.1300 O.2       4 ALP1        0.0000 
     64 CA         20.9862   49.8723   -6.3495 C.3       3 GLC5        0.0000 
     65 CA         23.0320   49.5080   -6.6850 C.3       9 GLL5        0.0000 
     66 CA         19.0620   49.7720   -6.4810 C.3       6 GLP5        0.0000 
     67 CA         22.5068   47.9795   -7.6843 C.3       3 GLC5        0.0000 
     68 CA         21.6980   47.0160   -8.9230 C.3       6 GLP5        0.0000 
     69 CA         26.4175   43.7075   -3.6117 C.3       3 GLC5        0.0000 
     70 CA         28.1600   42.9180   -3.3900 C.3       6 GLP5        0.0000 
     71 CA         24.1333   42.1710   -0.1145 C.3       3 GLC5        0.0000 
     72 CA         21.2943   44.7085   -1.2435 C.3       3 GLC5        0.0000 
     73 CA         19.9390   45.7580   -1.7190 C.3       6 GLP5        0.0000 
     74 CA         20.1160   40.9763    1.3920 C.3       3 GLC5        0.0000 
     75 CA         21.9360   40.1800    2.6250 C.3       9 GLL5        0.0000 
     76 CA         18.1950   41.2080    0.7690 C.3       6 GLP5        0.0000 
     77 CA         21.8989   41.5000    4.8037 C.3       3 GLC5        0.0000 
@<TRIPOS>BOND
@<TRIPOS>SUBSTRUCTURE
     1 ALC1        9 GROUP        1 X    ALC  0     ROOT ALC X 1
     2 SEC2       47 GROUP        1 X    SEC  0     **** SEC X 2
     3 GLC5        1 GROUP        1 X    GLC  0     **** GLC X 6
     4 ALP1       11 GROUP        1 Y    ALP  0     ROOT ALP Y 8
     5 SEP2       49 GROUP        1 Y    SEP  0     **** SEP Y 9
     6 GLP5        3 GROUP        1 Y    GLP  0     **** GLP Y 13
     7 ALL1       10 GROUP        1 Z    ALL  0     ROOT ALL Z 15
     8 SEL2       48 GROUP        1 Z    SEL  0     **** SEL Z 16
     9 GLL5        2 GROUP        1 Z    GLL  0     **** GLL Z 20
@<TRIPOS>SET

