#    Name: 4jsr_1NQ_1_ligand
#    Modification time : Tue Mar 25 06:16:18 2014

@<TRIPOS>MOLECULE
4jsr_1NQ_1_ligand
   59    62     1     0     0
SMALL
NO_CHARGES


@<TRIPOS>ATOM
      1 CAA        21.1630   54.2790   -6.4830 C.3       1 1NQ402      0.0000 
      2 CAJ        21.3500   53.3760   -7.7050 C.3       1 1NQ402      0.0000 
      3 NAS        21.9500   52.1010   -7.2860 N.am      1 1NQ402      0.0000 
      4 CAX        22.1560   51.8070   -6.0050 C.2       1 1NQ402      0.0000 
      5 OAD        21.8720   52.5560   -5.0720 O.2       1 1NQ402      0.0000 
      6 CAZ        22.7890   50.4370   -5.7510 C.2       1 1NQ402      0.0000 
      7 SAU        23.2900   49.8570   -4.2580 S.3       1 1NQ402      0.0000 
      8 CAG        23.0320   49.5080   -6.6850 C.2       1 1NQ402      0.0000 
      9 CAH        23.5990   48.3780   -6.2060 C.2       1 1NQ402      0.0000 
     10 CBA        23.8160   48.3910   -4.8850 C.2       1 1NQ402      0.0000 
     11 CAY        24.4430   47.2530   -4.0770 C.2       1 1NQ402      0.0000 
     12 OAE        24.7330   47.4040   -2.8910 O.2       1 1NQ402      0.0000 
     13 NAT        24.6380   46.1250   -4.7530 N.am      1 1NQ402      0.0000 
     14 CAK        25.2300   44.9340   -4.1270 C.3       1 1NQ402      0.0000 
     15 CAL        24.1200   44.0600   -3.5400 C.3       1 1NQ402      0.0000 
     16 CBF        23.7960   44.4750   -2.1040 C.3       1 1NQ402      0.0000 
     17 CAN        22.8210   43.4690   -1.4890 C.3       1 1NQ402      0.0000 
     18 CAP        22.4780   43.8490   -0.0470 C.3       1 1NQ402      0.0000 
     19 CAM        25.0840   44.5090   -1.2790 C.3       1 1NQ402      0.0000 
     20 CAO        24.7990   44.9150    0.1690 C.3       1 1NQ402      0.0000 
     21 NBG        23.7260   44.0560    0.7200 N.3       1 1NQ402      0.0000 
     22 C6         23.8940   43.4400    1.9650 C.ar      1 1NQ402      0.0000 
     23 N1         24.7080   43.9750    2.8840 N.ar      1 1NQ402      0.0000 
     24 C2         24.8640   43.3910    4.0590 C.ar      1 1NQ402      0.0000 
     25 N3         24.2340   42.2710    4.3740 N.ar      1 1NQ402      0.0000 
     26 C4         23.3990   41.6660    3.5150 C.ar      1 1NQ402      0.0000 
     27 CAI        22.6840   40.5300    3.6770 C.2       1 1NQ402      0.0000 
     28 C5         23.2190   42.2670    2.2650 C.ar      1 1NQ402      0.0000 
     29 SAV        22.1380   41.3090    1.4050 S.3       1 1NQ402      0.0000 
     30 CBB        21.9360   40.1800    2.6250 C.2       1 1NQ402      0.0000 
     31 CAW        21.0380   38.9440    2.5490 C.2       1 1NQ402      0.0000 
     32 OAC        20.5150   38.6050    1.4890 O.2       1 1NQ402      0.0000 
     33 NAB        20.8800   38.2920    3.6980 N.am      1 1NQ402      0.0000 
     34 H          21.9930   53.8912   -8.4179 H         1 1NQ402      0.0000 
     35 H          20.3756   53.2133   -8.1645 H         1 1NQ402      0.0000 
     36 H          22.2002   51.4496   -8.0582 H         1 1NQ402      0.0000 
     37 H          22.8145   49.6337   -7.6571 H         1 1NQ402      0.0000 
     38 H          23.8345   47.5998   -6.7958 H         1 1NQ402      0.0000 
     39 H          24.3841   46.0219   -5.7576 H         1 1NQ402      0.0000 
     40 H          25.9080   45.2161   -3.3219 H         1 1NQ402      0.0000 
     41 H          25.7809   44.3447   -4.8596 H         1 1NQ402      0.0000 
     42 H          24.4406   43.0191   -3.5490 H         1 1NQ402      0.0000 
     43 H          23.2247   44.1580   -4.1525 H         1 1NQ402      0.0000 
     44 H          23.3516   45.4426   -2.1066 H         1 1NQ402      0.0000 
     45 H          23.2729   42.4783   -1.5009 H         1 1NQ402      0.0000 
     46 H          21.9073   43.4471   -2.0810 H         1 1NQ402      0.0000 
     47 H          21.8876   43.0465    0.3916 H         1 1NQ402      0.0000 
     48 H          21.8817   44.7596   -0.0612 H         1 1NQ402      0.0000 
     49 H          25.7753   45.2245   -1.7223 H         1 1NQ402      0.0000 
     50 H          25.5436   43.5216   -1.2904 H         1 1NQ402      0.0000 
     51 H          24.4971   45.9603    0.1829 H         1 1NQ402      0.0000 
     52 H          25.7139   44.8022    0.7471 H         1 1NQ402      0.0000 
     53 H          25.5159   43.8343    4.7741 H         1 1NQ402      0.0000 
     54 H          22.7173   39.9918    4.5306 H         1 1NQ402      0.0000 
     55 H          21.3614   38.6706    4.4885 H         1 1NQ402      0.0000 
     56 H          20.2941   37.4822    3.6674 H         1 1NQ402      0.0000 
     57 H          22.0324   54.4750   -6.0295 H         1 1NQ402      0.0000 
     58 H          20.7564   55.1586   -6.7299 H         1 1NQ402      0.0000 
     59 H          20.5641   53.8606   -5.8002 H         1 1NQ402      0.0000 
@<TRIPOS>BOND
     1    2    1 1    
     2   57    1 1    
     3   58    1 1    
     4   59    1 1    
     5    3    2 1    
     6   34    2 1    
     7   35    2 1    
     8    4    3 am   
     9   36    3 1    
    10    5    4 2    
    11    6    4 1    
    12    7    6 1    
    13    8    6 2    
    14   10    7 1    
    15    9    8 1    
    16   37    8 1    
    17   10    9 2    
    18   38    9 1    
    19   11   10 1    
    20   12   11 2    
    21   13   11 am   
    22   14   13 1    
    23   39   13 1    
    24   15   14 1    
    25   40   14 1    
    26   41   14 1    
    27   16   15 1    
    28   42   15 1    
    29   43   15 1    
    30   17   16 1    
    31   19   16 1    
    32   44   16 1    
    33   18   17 1    
    34   45   17 1    
    35   46   17 1    
    36   21   18 1    
    37   47   18 1    
    38   48   18 1    
    39   20   19 1    
    40   49   19 1    
    41   50   19 1    
    42   21   20 1    
    43   51   20 1    
    44   52   20 1    
    45   22   21 1    
    46   23   22 ar   
    47   28   22 ar   
    48   24   23 ar   
    49   25   24 ar   
    50   53   24 1    
    51   26   25 ar   
    52   27   26 1    
    53   28   26 ar   
    54   30   27 2    
    55   54   27 1    
    56   29   28 1    
    57   30   29 1    
    58   31   30 1    
    59   32   31 2    
    60   33   31 am   
    61   55   33 1    
    62   56   33 1    
@<TRIPOS>SUBSTRUCTURE
     1 1NQ402      1 GROUP   
@<TRIPOS>SET

