#    Name: 3LGG_2_CAVITY_N1_6.mol2
#    Modification time : Tue Mar 11 11:27:10 2014

@<TRIPOS>MOLECULE
3LGG_2_CAVITY_N1_6.mol2
   72     0     7     0     0
SMALL
NO_CHARGES


@<TRIPOS>ATOM
      1 CA        -18.4972   -0.0198  -20.4976 C.3       6 GLY6        0.0000 
      2 N         -18.9200   -1.1931  -19.6642 N.2       2 ALA2        0.0000 
      3 CA        -20.8955    0.8133  -17.8416 C.3       6 GLY6        0.0000 
      4 CA        -21.0938    1.3517  -19.8839 C.3       6 GLY6        0.0000 
      5 CA        -21.5166    0.1784  -19.0504 C.3       6 GLY6        0.0000 
      6 DU        -21.7149    0.7168  -21.0927 H         7 CUB7        0.0000 
      7 DU        -22.1376   -0.4565  -20.2592 H         7 CUB7        0.0000 
      8 O         -22.7587   -1.0914  -21.4680 O.2       2 ALA2        0.0000 
      9 NZ        -17.0006   -1.2440  -18.7622 N.2       4 LYS4        0.0000 
     10 NZ        -17.4234   -2.4173  -17.9288 N.2       4 LYS4        0.0000 
     11 CZ        -17.6217   -1.8789  -19.9710 C.ar      5 PHE5        0.0000 
     12 N         -18.0444   -3.0522  -19.1376 N.2       2 ALA2        0.0000 
     13 CA        -18.2427   -2.5138  -21.1798 C.3       6 GLY6        0.0000 
     14 N         -18.6655   -3.6871  -20.3464 N.2       2 ALA2        0.0000 
     15 CA        -18.4410   -1.9754  -23.2221 C.3       6 GLY6        0.0000 
     16 DU        -18.8638   -3.1487  -22.3886 H         7 CUB7        0.0000 
     17 CA        -19.2865   -4.3220  -21.5552 C.3       6 GLY6        0.0000 
     18 OG        -19.0621   -2.6103  -24.4309 O.2       1 SER1        0.0000 
     19 CA        -19.4848   -3.7836  -23.5974 C.3       6 GLY6        0.0000 
     20 CA        -20.1059   -4.4185  -24.8062 C.3       6 GLY6        0.0000 
     21 NZ        -15.5040   -2.4682  -17.0268 N.2       4 LYS4        0.0000 
     22 O         -15.9267   -3.6415  -16.1934 O.2       2 ALA2        0.0000 
     23 CA        -16.5478   -4.2764  -17.4022 C.3       6 GLY6        0.0000 
     24 CZ        -16.7461   -3.7380  -19.4444 C.ar      5 PHE5        0.0000 
     25 CA        -17.1689   -4.9113  -18.6110 C.3       6 GLY6        0.0000 
     26 CZ        -16.9444   -3.1996  -21.4867 C.ar      5 PHE5        0.0000 
     27 CA        -17.3672   -4.3729  -20.6532 C.3       6 GLY6        0.0000 
     28 CA        -17.7899   -5.5462  -19.8198 C.3       6 GLY6        0.0000 
     29 CA        -17.5655   -3.8344  -22.6955 C.3       6 GLY6        0.0000 
     30 CA        -17.9882   -5.0078  -21.8620 C.3       6 GLY6        0.0000 
     31 CA        -18.1866   -4.4693  -23.9043 C.3       6 GLY6        0.0000 
     32 CA        -19.1183   -0.6547  -21.7064 C.3       6 GLY6        0.0000 
     33 N         -19.5410   -1.8280  -20.8730 N.2       2 ALA2        0.0000 
     34 N         -19.3166   -0.1163  -23.7487 N.2       2 ALA2        0.0000 
     35 CA        -19.7393   -1.2896  -22.9152 C.3       6 GLY6        0.0000 
     36 O         -20.1621   -2.4629  -22.0818 O.2       2 ALA2        0.0000 
     37 OG        -20.3604   -1.9245  -24.1240 O.2       1 SER1        0.0000 
     38 CA        -20.7831   -3.0978  -23.2906 C.3       6 GLY6        0.0000 
     39 CZ        -13.8091   -4.2308  -13.2492 C.ar      5 PHE5        0.0000 
     40 CZ        -14.0074   -3.6924  -15.2915 C.ar      5 PHE5        0.0000 
     41 O         -14.4301   -4.8657  -14.4580 O.2       2 ALA2        0.0000 
     42 CZ        -14.2057   -3.1539  -17.3337 C.ar      5 PHE5        0.0000 
     43 O         -14.6285   -4.3272  -16.5003 O.2       2 ALA2        0.0000 
     44 CA        -15.0512   -5.5006  -15.6668 C.3       6 GLY6        0.0000 
     45 CZ        -14.8268   -3.7888  -18.5425 C.ar      5 PHE5        0.0000 
     46 O         -15.2495   -4.9621  -17.7090 O.2       2 ALA2        0.0000 
     47 O         -15.6723   -6.1354  -16.8756 O.2       2 ALA2        0.0000 
     48 CZ        -15.4478   -4.4237  -19.7513 C.ar      5 PHE5        0.0000 
     49 O         -15.8706   -5.5970  -18.9178 O.2       2 ALA2        0.0000 
     50 O         -16.2933   -6.7703  -18.0844 O.2       2 ALA2        0.0000 
     51 NZ        -16.0689   -5.0586  -20.9601 N.2       4 LYS4        0.0000 
     52 NZ        -16.4916   -6.2319  -20.1266 N.2       4 LYS4        0.0000 
     53 O         -16.9144   -7.4052  -19.2932 O.2       2 ALA2        0.0000 
     54 CA        -16.2672   -4.5202  -23.0023 C.3       6 GLY6        0.0000 
     55 NZ        -17.1127   -6.8668  -21.3354 N.2       4 LYS4        0.0000 
     56 CZ        -12.0880   -3.7432  -14.3895 C.ar      5 PHE5        0.0000 
     57 OD1       -12.5108   -4.9165  -13.5561 O.3       3 ASP3        0.0000 
     58 CZ        -12.2863   -3.2048  -16.4318 C.ar      5 PHE5        0.0000 
     59 N         -12.7091   -4.3781  -15.5983 N.2       2 ALA2        0.0000 
     60 OD1       -13.1318   -5.5514  -14.7649 O.3       3 ASP3        0.0000 
     61 NZ        -12.9074   -3.8397  -17.6406 N.2       4 LYS4        0.0000 
     62 N         -13.3302   -5.0130  -16.8071 N.2       2 ALA2        0.0000 
     63 NZ        -13.5285   -4.4746  -18.8494 N.2       4 LYS4        0.0000 
     64 CA        -14.1495   -5.1095  -20.0582 C.3       6 GLY6        0.0000 
     65 CA        -19.7955    0.6659  -20.1907 C.3       6 GLY6        0.0000 
     66 N         -20.2183   -0.5074  -19.3573 N.2       2 ALA2        0.0000 
     67 O         -19.9938    1.2043  -22.2330 O.2       2 ALA2        0.0000 
     68 DU        -20.4166    0.0310  -21.3995 H         7 CUB7        0.0000 
     69 N         -20.8393   -1.1423  -20.5661 N.2       2 ALA2        0.0000 
     70 DU        -21.0376   -0.6039  -22.6083 H         7 CUB7        0.0000 
     71 O         -21.4604   -1.7772  -21.7749 O.2       2 ALA2        0.0000 
     72 O         -22.0814   -2.4121  -22.9837 O.2       2 ALA2        0.0000 
@<TRIPOS>BOND
@<TRIPOS>SUBSTRUCTURE
     1 SER1       18 GROUP   
     2 ALA2        2 GROUP   
     3 ASP3       57 GROUP   
     4 LYS4        9 GROUP   
     5 PHE5       11 GROUP   
     6 GLY6        1 GROUP   
     7 CUB7        6 GROUP   
@<TRIPOS>SET

