#    Name: 3lgg_CFE_2_INTS_M
#    Modification time : Mon Mar 24 21:38:44 2014

@<TRIPOS>MOLECULE
3lgg_CFE_2_INTS_M
   72     0    12     0     0
SMALL
NO_CHARGES


@<TRIPOS>ATOM
      1 N         -10.9755   -4.2795  -17.3315 N.am      2 SEC2        0.0000 
      2 N         -12.1600   -4.3090  -16.7640 N.am     10 SEL2        0.0000 
      3 N          -9.7910   -4.2500  -17.8990 N.am      6 SEP2        0.0000 
      4 CA        -14.4550   -3.0420  -13.0740 C.3       4 GLC5        0.0000 
      5 CA        -14.2190   -4.7480  -13.0540 C.3      12 GLL5        0.0000 
      6 CA        -14.6910   -1.3360  -13.0940 C.3       8 GLP5        0.0000 
      7 CA        -16.1595   -4.0865  -13.1020 C.3       4 GLC5        0.0000 
      8 CA        -18.1000   -3.4250  -13.1500 C.3       8 GLP5        0.0000 
      9 CA        -13.7890   -6.3840  -12.5565 C.3       4 GLC5        0.0000 
     10 CA        -13.3590   -8.0200  -12.0590 C.3       8 GLP5        0.0000 
     11 O         -12.7925   -4.4250  -11.1040 O.2       1 ALC1        0.0000 
     12 O         -13.1290   -4.3030  -12.5530 O.2       9 ALL1        0.0000 
     13 O         -12.4560   -4.5470   -9.6550 O.2       5 ALP1        0.0000 
     14 CA        -12.8610   -2.3820  -12.6345 C.3       4 GLC5        0.0000 
     15 CA        -11.9040   -3.7760  -13.1750 C.3      12 GLL5        0.0000 
     16 CA        -13.8180   -0.9880  -12.0940 C.3       8 GLP5        0.0000 
     17 CA        -12.0075   -2.2305  -14.7975 C.3       4 GLC5        0.0000 
     18 CA        -12.1110   -0.6850  -16.4200 C.3       8 GLP5        0.0000 
     19 CA        -10.8520   -2.1465  -13.0025 C.3       4 GLC5        0.0000 
     20 CA         -9.8000   -0.5170  -12.8300 C.3       8 GLP5        0.0000 
     21 Zn        -11.2470   -6.8270  -14.3110 Zn        3 ZIC7        0.0000 
     22 Zn        -11.1790   -5.9670  -13.8960 Zn       11 ZIL7        0.0000 
     23 Zn        -11.3150   -7.6870  -14.7260 Zn        7 ZIP7        0.0000 
     24 N         -10.4380   -6.4750  -12.6955 N.am      2 SEC2        0.0000 
     25 N         -11.1790   -5.9670  -13.8960 N.am     10 SEL2        0.0000 
     26 N          -9.6970   -6.9830  -11.4950 N.am      6 SEP2        0.0000 
     27 O         -10.2635   -6.3925  -14.9985 O.2       1 ALC1        0.0000 
     28 O         -11.1790   -5.9670  -13.8960 O.2       9 ALL1        0.0000 
     29 O          -9.3480   -6.8180  -16.1010 O.2       5 ALP1        0.0000 
     30 O          -9.7940   -5.7550  -14.2355 O.2       1 ALC1        0.0000 
     31 O          -8.4090   -5.5430  -14.5750 O.2       5 ALP1        0.0000 
     32 CA        -12.7660   -5.9120  -16.6030 C.3       4 GLC5        0.0000 
     33 CA        -13.8530   -4.6350  -15.4070 C.3      12 GLL5        0.0000 
     34 CA        -11.6790   -7.1890  -17.7990 C.3       8 GLP5        0.0000 
     35 CA        -16.6720   -5.9050  -16.0430 C.3       4 GLC5        0.0000 
     36 CA        -15.8010   -4.5460  -17.0230 C.3      12 GLL5        0.0000 
     37 CA        -17.5430   -7.2640  -15.0630 C.3       8 GLP5        0.0000 
     38 CA        -15.8910   -1.7445  -15.4600 C.3       4 GLC5        0.0000 
     39 CA        -16.2760   -3.1130  -17.1970 C.3      12 GLL5        0.0000 
     40 CA        -15.5060   -0.3760  -13.7230 C.3       8 GLP5        0.0000 
     41 CA        -14.9385   -1.8780  -18.4105 C.3       4 GLC5        0.0000 
     42 CA        -13.6010   -0.6430  -19.6240 C.3       8 GLP5        0.0000 
     43 CA        -17.1880   -3.2690  -15.1735 C.3       4 GLC5        0.0000 
     44 N         -18.7965   -2.9735  -16.9830 N.am      2 SEC2        0.0000 
     45 N         -17.4010   -2.8940  -16.3550 N.am     10 SEL2        0.0000 
     46 N         -20.1920   -3.0530  -17.6110 N.am      6 SEP2        0.0000 
     47 O         -17.9055   -1.6780  -16.4490 O.2       1 ALC1        0.0000 
     48 O         -17.4010   -2.8940  -16.3550 O.2       9 ALL1        0.0000 
     49 O         -18.4100   -0.4620  -16.5430 O.2       5 ALP1        0.0000 
     50 CA        -15.6730   -1.4955  -19.4515 C.3       4 GLC5        0.0000 
     51 CA        -16.6760   -2.9880  -18.6520 C.3      12 GLL5        0.0000 
     52 CA        -14.6700   -0.0030  -20.2510 C.3       8 GLP5        0.0000 
     53 N         -19.0595   -2.6825  -18.1950 N.am      2 SEC2        0.0000 
     54 N         -17.9270   -2.3120  -18.7790 N.am     10 SEL2        0.0000 
     55 O         -18.1685   -1.3870  -17.6610 O.2       1 ALC1        0.0000 
     56 O         -17.9270   -2.3120  -18.7790 O.2       9 ALL1        0.0000 
     57 CA        -17.7085   -5.6690  -17.6335 C.3       4 GLC5        0.0000 
     58 CA        -16.8070   -4.4220  -19.1310 C.3      12 GLL5        0.0000 
     59 CA        -18.6100   -6.9160  -16.1360 C.3       8 GLP5        0.0000 
     60 CA        -15.5010   -3.1015  -21.2945 C.3       4 GLC5        0.0000 
     61 CA        -16.3910   -4.5780  -20.5820 C.3      12 GLL5        0.0000 
     62 CA        -14.6110   -1.6250  -22.0070 C.3       8 GLP5        0.0000 
     63 N         -16.5950   -6.9775  -20.2330 N.am      2 SEC2        0.0000 
     64 N         -16.7990   -5.8780  -21.0170 N.am     10 SEL2        0.0000 
     65 N         -16.3910   -8.0770  -19.4490 N.am      6 SEP2        0.0000 
     66 O         -16.1065   -6.4050  -22.0955 O.2       1 ALC1        0.0000 
     67 O         -16.7990   -5.8780  -21.0170 O.2       9 ALL1        0.0000 
     68 O         -15.4140   -6.9320  -23.1740 O.2       5 ALP1        0.0000 
     69 CA        -11.7878   -5.8848  -16.3457 C.3       4 GLC5        0.0000 
     70 CA        -12.3840   -4.5380  -15.4490 C.3      12 GLL5        0.0000 
     71 CA        -18.2230   -5.7000  -20.5727 C.3       4 GLC5        0.0000 
     72 CA        -19.8470   -6.9000  -21.2890 C.3       8 GLP5        0.0000 
@<TRIPOS>BOND
@<TRIPOS>SUBSTRUCTURE
     1 ALC1       11 GROUP        1 X    ALC  0     ROOT ALC X 1
     2 SEC2        1 GROUP        1 X    SEC  0     **** SEC X 2
     3 ZIC7       21 GROUP        1 X    ZIC  0     **** ZIC X 5
     4 GLC5        4 GROUP        1 X    GLC  0     **** GLC X 6
     5 ALP1       13 GROUP        1 Y    ALP  0     ROOT ALP Y 8
     6 SEP2        3 GROUP        1 Y    SEP  0     **** SEP Y 9
     7 ZIP7       23 GROUP        1 Y    ZIP  0     **** ZIP Y 12
     8 GLP5        6 GROUP        1 Y    GLP  0     **** GLP Y 13
     9 ALL1       12 GROUP        1 Z    ALL  0     ROOT ALL Z 15
    10 SEL2        2 GROUP        1 Z    SEL  0     **** SEL Z 16
    11 ZIL7       22 GROUP        1 Z    ZIL  0     **** ZIL Z 19
    12 GLL5        5 GROUP        1 Z    GLL  0     **** GLL Z 20
@<TRIPOS>SET

