#    Name: 3lgg_CFE_2_ligand
#    Modification time : Mon Mar 24 21:38:45 2014

@<TRIPOS>MOLECULE
3lgg_CFE_2_ligand
   37    39     1     0     0
SMALL
NO_CHARGES


@<TRIPOS>ATOM
      1 N1        -12.1600   -4.3090  -16.7640 N.2       1 CFE513      0.0000 
      2 C2        -13.3300   -4.2930  -17.4570 C.2       1 CFE513      0.0000 
      3 N3        -14.3730   -4.5100  -16.6350 N.pl3     1 CFE513      0.0000 
      4 N4        -14.5810   -4.9000  -14.2650 N.pl3     1 CFE513      0.0000 
      5 C5        -14.2190   -4.7480  -13.0540 C.2       1 CFE513      0.0000 
      6 N6        -13.1290   -4.3030  -12.5530 N.pl3     1 CFE513      0.0000 
      7 C7        -11.9040   -3.7760  -13.1750 C.3       1 CFE513      0.0000 
      8 C8        -11.4090   -4.6230  -14.3360 C.3       1 CFE513      0.0000 
      9 O8        -11.1790   -5.9670  -13.8960 O.3       1 CFE513      0.0000 
     10 C9        -12.3840   -4.5380  -15.4490 C.2       1 CFE513      0.0000 
     11 C10       -13.8530   -4.6350  -15.4070 C.2       1 CFE513      0.0000 
     12 C1S       -15.8010   -4.5460  -17.0230 C.3       1 CFE513      0.0000 
     13 C2S       -16.2760   -3.1130  -17.1970 C.3       1 CFE513      0.0000 
     14 O2S       -17.4010   -2.8940  -16.3550 O.3       1 CFE513      0.0000 
     15 C3S       -16.6760   -2.9880  -18.6520 C.3       1 CFE513      0.0000 
     16 O3S       -17.9270   -2.3120  -18.7790 O.3       1 CFE513      0.0000 
     17 C4S       -16.8070   -4.4220  -19.1310 C.3       1 CFE513      0.0000 
     18 O4S       -15.9700   -5.2120  -18.2780 O.3       1 CFE513      0.0000 
     19 C5S       -16.3910   -4.5780  -20.5820 C.3       1 CFE513      0.0000 
     20 O5S       -16.7990   -5.8780  -21.0170 O.3       1 CFE513      0.0000 
     21 H         -13.3960   -4.1433  -18.4224 H         1 CFE513      0.0000 
     22 H         -15.5943   -5.2893  -14.4683 H         1 CFE513      0.0000 
     23 H         -14.9968   -5.0610  -12.2830 H         1 CFE513      0.0000 
     24 H         -13.0261   -4.2852  -11.4367 H         1 CFE513      0.0000 
     25 H         -11.0936   -3.7081  -12.4250 H         1 CFE513      0.0000 
     26 H         -12.0753   -2.7474  -13.5444 H         1 CFE513      0.0000 
     27 H         -10.4644   -4.1690  -14.6700 H         1 CFE513      0.0000 
     28 H         -16.3823   -4.9974  -16.2525 H         1 CFE513      0.0000 
     29 H         -15.4693   -2.4610  -16.9992 H         1 CFE513      0.0000 
     30 H         -15.8882   -2.5245  -19.1856 H         1 CFE513      0.0000 
     31 H         -17.8389   -4.7180  -19.0238 H         1 CFE513      0.0000 
     32 H         -15.3109   -4.4525  -20.6421 H         1 CFE513      0.0000 
     33 H         -16.8704   -3.7896  -21.1605 H         1 CFE513      0.0000 
     34 H         -10.1979   -6.1155  -14.0201 H         1 CFE513      0.0000 
     35 H         -17.3946   -1.9123  -16.1649 H         1 CFE513      0.0000 
     36 H         -17.9724   -1.7013  -17.9885 H         1 CFE513      0.0000 
     37 H         -16.2724   -6.0493  -21.8497 H         1 CFE513      0.0000 
@<TRIPOS>BOND
     1    2    1 2    
     2   10    1 1    
     3    3    2 1    
     4   21    2 1    
     5   11    3 1    
     6   12    3 1    
     7    5    4 1    
     8   11    4 1    
     9   22    4 1    
    10    6    5 2    
    11   23    5 1    
    12    7    6 1    
    13   24    6 1    
    14    8    7 1    
    15   25    7 1    
    16   26    7 1    
    17    9    8 1    
    18   10    8 1    
    19   27    8 1    
    20   34    9 1    
    21   11   10 2    
    22   13   12 1    
    23   18   12 1    
    24   28   12 1    
    25   14   13 1    
    26   15   13 1    
    27   29   13 1    
    28   35   14 1    
    29   16   15 1    
    30   17   15 1    
    31   30   15 1    
    32   36   16 1    
    33   18   17 1    
    34   19   17 1    
    35   31   17 1    
    36   20   19 1    
    37   32   19 1    
    38   33   19 1    
    39   37   20 1    
@<TRIPOS>SUBSTRUCTURE
     1 CFE513      1 GROUP   
@<TRIPOS>SET

