#    Name: 1A97_1_CAVITY_N1_6.mol2
#    Modification time : Mon Mar 10 12:47:10 2014

@<TRIPOS>MOLECULE
1A97_1_CAVITY_N1_6.mol2
  130     0     7     0     0
SMALL
NO_CHARGES


@<TRIPOS>ATOM
      1 CZ         21.2128  138.3484   29.2858 C.ar      5 PHE5        0.0000 
      2 NZ         20.9795  138.8290   27.8841 N.2       4 LYS4        0.0000 
      3 CZ         22.0149  135.9656   29.9406 C.ar      5 PHE5        0.0000 
      4 O          20.7220  136.5929   30.3708 O.2       2 ALA2        0.0000 
      5 NZ         24.4453  131.5337   28.0167 N.2       4 LYS4        0.0000 
      6 CA         23.1525  132.1610   28.4469 C.3       6 GLY6        0.0000 
      7 N          21.8596  132.7884   28.8771 N.2       2 ALA2        0.0000 
      8 NZ         26.7977  130.7597   25.7546 N.2       4 LYS4        0.0000 
      9 NZ         25.5048  131.3870   26.1848 N.2       4 LYS4        0.0000 
     10 NZ         24.2120  132.0143   26.6150 N.2       4 LYS4        0.0000 
     11 NZ         22.9192  132.6416   27.0453 N.2       4 LYS4        0.0000 
     12 CA         21.6264  133.2689   27.4755 C.3       6 GLY6        0.0000 
     13 DU         25.2716  131.8675   24.7831 H         7 CUB7        0.0000 
     14 DU         23.9788  132.4948   25.2134 H         7 CUB7        0.0000 
     15 NZ         22.6859  133.1221   25.6436 N.2       4 LYS4        0.0000 
     16 CA         21.3931  133.7495   26.0738 C.3       6 GLY6        0.0000 
     17 DU         25.0383  132.3481   23.3815 H         7 CUB7        0.0000 
     18 DU         23.7455  132.9754   23.8117 H         7 CUB7        0.0000 
     19 DU         22.4527  133.6027   24.2419 H         7 CUB7        0.0000 
     20 CA         21.1598  134.2300   24.6722 C.3       6 GLY6        0.0000 
     21 DU         24.8050  132.8286   21.9798 H         7 CUB7        0.0000 
     22 DU         22.2194  134.0832   22.8403 H         7 CUB7        0.0000 
     23 DU         20.9266  134.7106   23.2705 H         7 CUB7        0.0000 
     24 CA         19.6338  135.3379   23.7007 C.3       6 GLY6        0.0000 
     25 CA         18.3409  135.9652   24.1309 C.3       6 GLY6        0.0000 
     26 DU         24.5718  133.3092   20.5782 H         7 CUB7        0.0000 
     27 DU         21.9861  134.5638   21.4386 H         7 CUB7        0.0000 
     28 DU         20.6933  135.1911   21.8688 H         7 CUB7        0.0000 
     29 OG         19.4005  135.8184   22.2991 O.2       1 SER1        0.0000 
     30 O          18.1077  136.4457   22.7293 O.2       2 ALA2        0.0000 
     31 DU         24.3385  133.7897   19.1765 H         7 CUB7        0.0000 
     32 DU         23.0457  134.4170   19.6067 H         7 CUB7        0.0000 
     33 OG         21.7529  135.0443   20.0369 O.2       1 SER1        0.0000 
     34 OG         20.4600  135.6717   20.4672 O.2       1 SER1        0.0000 
     35 OG         17.8744  136.9263   21.3276 O.2       1 SER1        0.0000 
     36 N          24.1052  134.2703   17.7748 N.2       2 ALA2        0.0000 
     37 N          22.8124  134.8976   18.2051 N.2       2 ALA2        0.0000 
     38 OG         21.5196  135.5249   18.6353 O.2       1 SER1        0.0000 
     39 OG         21.2863  136.0054   17.2336 O.2       1 SER1        0.0000 
     40 O          23.4880  130.7393   26.2984 O.2       2 ALA2        0.0000 
     41 O          25.8404  129.9652   24.0363 O.2       2 ALA2        0.0000 
     42 O          24.5476  130.5925   24.4665 O.2       2 ALA2        0.0000 
     43 NZ         23.2547  131.2199   24.8968 N.2       4 LYS4        0.0000 
     44 O          25.6071  130.4458   22.6346 O.2       2 ALA2        0.0000 
     45 O          24.3143  131.0731   23.0649 O.2       2 ALA2        0.0000 
     46 O          23.0215  131.7004   23.4951 O.2       2 ALA2        0.0000 
     47 NZ         21.7286  132.3277   23.9253 N.2       4 LYS4        0.0000 
     48 NZ         20.4358  132.9550   24.3555 N.2       4 LYS4        0.0000 
     49 O          25.3738  130.9263   21.2330 O.2       2 ALA2        0.0000 
     50 O          24.0810  131.5536   21.6632 O.2       2 ALA2        0.0000 
     51 O          22.7882  132.1810   22.0934 O.2       2 ALA2        0.0000 
     52 NZ         21.4954  132.8083   22.5236 N.2       4 LYS4        0.0000 
     53 NZ         20.2026  133.4356   22.9539 N.2       4 LYS4        0.0000 
     54 N          18.9097  134.0629   23.3841 N.2       2 ALA2        0.0000 
     55 O          25.1406  131.4069   19.8313 O.2       2 ALA2        0.0000 
     56 O          23.8478  132.0342   20.2615 O.2       2 ALA2        0.0000 
     57 N          22.5549  132.6615   20.6918 N.2       2 ALA2        0.0000 
     58 DU         21.2621  133.2888   21.1220 H         7 CUB7        0.0000 
     59 NZ         19.9693  133.9161   21.5522 N.2       4 LYS4        0.0000 
     60 NZ         18.6765  134.5434   21.9824 N.2       4 LYS4        0.0000 
     61 N          17.3837  135.1708   22.4127 N.2       2 ALA2        0.0000 
     62 N          23.6145  132.5147   18.8599 N.2       2 ALA2        0.0000 
     63 N          22.3217  133.1421   19.2901 N.2       2 ALA2        0.0000 
     64 CA         21.0288  133.7694   19.7203 C.3       6 GLY6        0.0000 
     65 CA         19.7360  134.3967   20.1505 C.3       6 GLY6        0.0000 
     66 CA         18.4432  135.0240   20.5808 C.3       6 GLY6        0.0000 
     67 CA         17.1504  135.6513   21.0110 C.3       6 GLY6        0.0000 
     68 N          22.0884  133.6226   17.8884 N.2       2 ALA2        0.0000 
     69 CA         20.7956  134.2499   18.3187 C.3       6 GLY6        0.0000 
     70 CA         20.5623  134.7305   16.9170 C.3       6 GLY6        0.0000 
     71 CA         23.8235  129.3176   24.1499 C.3       6 GLY6        0.0000 
     72 O          22.0642  130.9060   21.7768 O.2       2 ALA2        0.0000 
     73 NZ         20.7714  131.5333   22.2070 N.2       4 LYS4        0.0000 
     74 N          21.8309  131.3865   20.3751 N.2       2 ALA2        0.0000 
     75 NZ         20.5381  132.0139   20.8054 N.2       4 LYS4        0.0000 
     76 N          21.5976  131.8671   18.9735 N.2       2 ALA2        0.0000 
     77 NZ         20.3048  132.4944   19.4037 N.2       4 LYS4        0.0000 
     78 N          21.3644  132.3476   17.5718 N.2       2 ALA2        0.0000 
     79 CA         20.0716  132.9749   18.0020 C.3       6 GLY6        0.0000 
     80 CZ         24.3672  135.1915   27.6785 C.ar      5 PHE5        0.0000 
     81 CZ         23.0744  135.8189   28.1087 C.ar      5 PHE5        0.0000 
     82 CZ         21.7816  136.4462   28.5389 C.ar      5 PHE5        0.0000 
     83 OD1        20.4888  137.0735   28.9692 O.3       3 ASP3        0.0000 
     84 DU         25.4268  135.0448   25.8466 H         7 CUB7        0.0000 
     85 CZ         24.1340  135.6721   26.2768 C.ar      5 PHE5        0.0000 
     86 CZ         22.8411  136.2994   26.7071 C.ar      5 PHE5        0.0000 
     87 CZ         21.5483  136.9267   27.1373 C.ar      5 PHE5        0.0000 
     88 NZ         20.2555  137.5540   27.5675 N.2       4 LYS4        0.0000 
     89 DU         23.9007  136.1526   24.8752 H         7 CUB7        0.0000 
     90 DU         22.6079  136.7799   25.3054 H         7 CUB7        0.0000 
     91 DU         22.3746  137.2605   23.9037 H         7 CUB7        0.0000 
     92 NZ         21.0818  137.8878   24.3340 N.2       4 LYS4        0.0000 
     93 DU         23.4342  137.1137   22.0718 H         7 CUB7        0.0000 
     94 O          22.1413  137.7410   22.5021 O.2       2 ALA2        0.0000 
     95 O          20.8485  138.3684   22.9323 O.2       2 ALA2        0.0000 
     96 CA         19.5557  138.9957   23.3625 C.3       6 GLY6        0.0000 
     97 O          21.9081  138.2216   21.1004 O.2       2 ALA2        0.0000 
     98 NZ         25.1693  132.8087   28.3333 N.2       4 LYS4        0.0000 
     99 CZ         23.8765  133.4360   28.7635 C.ar      5 PHE5        0.0000 
    100 N          22.5837  134.0633   29.1938 N.2       2 ALA2        0.0000 
    101 N          21.2908  134.6906   29.6240 N.2       2 ALA2        0.0000 
    102 CA         19.9980  135.3180   30.0542 C.3       6 GLY6        0.0000 
    103 NZ         26.2289  132.6619   26.5014 N.2       4 LYS4        0.0000 
    104 NZ         24.9360  133.2893   26.9317 N.2       4 LYS4        0.0000 
    105 DU         23.6432  133.9166   27.3619 H         7 CUB7        0.0000 
    106 CA         22.3504  134.5439   27.7921 C.3       6 GLY6        0.0000 
    107 CA         21.0576  135.1712   28.2223 C.3       6 GLY6        0.0000 
    108 CA         19.7648  135.7985   28.6525 C.3       6 GLY6        0.0000 
    109 CA         18.4719  136.4258   29.0828 C.3       6 GLY6        0.0000 
    110 DU         25.9956  133.1425   25.0998 H         7 CUB7        0.0000 
    111 DU         24.7028  133.7698   25.5300 H         7 CUB7        0.0000 
    112 DU         23.4100  134.3971   25.9602 H         7 CUB7        0.0000 
    113 DU         22.1171  135.0244   26.3904 H         7 CUB7        0.0000 
    114 CA         20.8243  135.6517   26.8207 C.3       6 GLY6        0.0000 
    115 DU         21.8839  135.5050   24.9888 H         7 CUB7        0.0000 
    116 CA         20.5910  136.1323   25.4190 C.3       6 GLY6        0.0000 
    117 CA         19.2982  136.7596   25.8492 C.3       6 GLY6        0.0000 
    118 DU         21.6506  135.9855   23.5871 H         7 CUB7        0.0000 
    119 CA         20.3578  136.6128   24.0173 C.3       6 GLY6        0.0000 
    120 CA         19.0650  137.2402   24.4476 C.3       6 GLY6        0.0000 
    121 DU         21.4173  136.4661   22.1855 H         7 CUB7        0.0000 
    122 DU         20.1245  137.0934   22.6157 H         7 CUB7        0.0000 
    123 CA         18.8317  137.7207   23.0459 C.3       6 GLY6        0.0000 
    124 CA         23.7697  135.6920   19.9233 C.3       6 GLY6        0.0000 
    125 DU         22.4769  136.3193   20.3536 H         7 CUB7        0.0000 
    126 OG         21.1841  136.9466   20.7838 O.2       1 SER1        0.0000 
    127 OG         19.8912  137.5739   21.2140 O.2       1 SER1        0.0000 
    128 OG         18.5984  138.2013   21.6442 O.2       1 SER1        0.0000 
    129 CA         23.5364  136.1725   18.5217 C.3       6 GLY6        0.0000 
    130 CA         22.2436  136.7999   18.9519 C.3       6 GLY6        0.0000 
@<TRIPOS>BOND
@<TRIPOS>SUBSTRUCTURE
     1 SER1       29 GROUP   
     2 ALA2        4 GROUP   
     3 ASP3       83 GROUP   
     4 LYS4        2 GROUP   
     5 PHE5        1 GROUP   
     6 GLY6        6 GROUP   
     7 CUB7       13 GROUP   
@<TRIPOS>SET

