#    Name: 1a97_5GP_1_INTS_M
#    Modification time : Mon Mar 24 18:08:01 2014

@<TRIPOS>MOLECULE
1a97_5GP_1_INTS_M
   41     0    12     0     0
SMALL
NO_CHARGES


@<TRIPOS>ATOM
      1 N          16.0980  137.6620   23.7530 N.am      2 SEC2        0.0000 
      2 N          16.6420  137.9110   22.5340 N.am     10 SEL2        0.0000 
      3 N          15.5540  137.4130   24.9720 N.am      6 SEP2        0.0000 
      4 N          15.9935  139.0710   23.2465 N.am      2 SEC2        0.0000 
      5 N          15.3450  140.2310   23.9590 N.am      6 SEP2        0.0000 
      6 N          15.2430  138.8170   22.1880 N.am      2 SEC2        0.0000 
      7 N          13.8440  139.7230   21.8420 N.am      6 SEP2        0.0000 
      8 NZ         18.7965  139.5720   19.9020 N.4       3 LYC4        0.0000 
      9 NZ         17.8200  138.7910   20.5900 N.4      11 LYL4        0.0000 
     10 NZ         20.4910  141.2040   19.9350 N.4       7 LYP4        0.0000 
     11 N          18.7965  139.5720   19.9020 N.am      2 SEC2        0.0000 
     12 N          17.8200  138.7910   20.5900 N.am     10 SEL2        0.0000 
     13 N          19.7730  140.3530   19.2140 N.am      6 SEP2        0.0000 
     14 N          17.0550  138.6185   19.2860 N.am      2 SEC2        0.0000 
     15 N          16.2900  138.4460   17.9820 N.am      6 SEP2        0.0000 
     16 N          18.2875  137.9735   19.6625 N.am      2 SEC2        0.0000 
     17 N          18.7550  137.1560   18.7350 N.am      6 SEP2        0.0000 
     18 N          19.1680  140.5620   21.9900 N.am      2 SEC2        0.0000 
     19 N          17.7950  140.0570   22.7260 N.am     10 SEL2        0.0000 
     20 N          20.5410  141.0670   21.2540 N.am      6 SEP2        0.0000 
     21 N          16.5700  140.1440   23.3425 N.am      2 SEC2        0.0000 
     22 N          17.0820  141.0020   22.2245 N.am      2 SEC2        0.0000 
     23 N          16.3690  141.9470   21.7230 N.am      6 SEP2        0.0000 
     24 CA         18.4835  135.6995   24.8360 C.3       4 GLC5        0.0000 
     25 CA         19.0500  136.7800   23.1530 C.3      12 GLL5        0.0000 
     26 CA         17.9170  134.6190   26.5190 C.3       8 GLP5        0.0000 
     27 CA         18.2450  137.8025   24.3665 C.3       4 GLC5        0.0000 
     28 CA         17.4400  138.8250   25.5800 C.3       8 GLP5        0.0000 
     29 N          20.4300  135.7555   31.8805 N.am      2 SEC2        0.0000 
     30 N          20.4500  136.1420   30.5910 N.am     10 SEL2        0.0000 
     31 N          20.4100  135.3690   33.1700 N.am      6 SEP2        0.0000 
     32 O          21.9590  133.8930   30.8040 O.2       1 ALC1        0.0000 
     33 O          21.9820  134.6570   29.8120 O.2       9 ALL1        0.0000 
     34 O          21.9360  133.1290   31.7960 O.2       5 ALP1        0.0000 
     35 O          24.3575  132.4480   30.0495 O.2       1 ALC1        0.0000 
     36 O          23.5620  133.0880   29.1300 O.2       9 ALL1        0.0000 
     37 O          25.1530  131.8080   30.9690 O.2       5 ALP1        0.0000 
     38 CA         19.4410  134.6595   25.2047 C.3       4 GLC5        0.0000 
     39 CA         21.6250  134.6020   24.2030 C.3      12 GLL5        0.0000 
     40 CA         19.6642  135.2385   27.1547 C.3       4 GLC5        0.0000 
     41 CA         21.8030  135.5560   27.3030 C.3      12 GLL5        0.0000 
@<TRIPOS>BOND
@<TRIPOS>SUBSTRUCTURE
     1 ALC1       32 GROUP        1 X    ALC  0     ROOT ALC X 1
     2 SEC2        1 GROUP        1 X    SEC  0     **** SEC X 2
     3 LYC4        8 GROUP        1 X    LYC  0     **** LYC X 4
     4 GLC5       24 GROUP        1 X    GLC  0     **** GLC X 6
     5 ALP1       34 GROUP        1 Y    ALP  0     ROOT ALP Y 8
     6 SEP2        3 GROUP        1 Y    SEP  0     **** SEP Y 9
     7 LYP4       10 GROUP        1 Y    LYP  0     **** LYP Y 11
     8 GLP5       26 GROUP        1 Y    GLP  0     **** GLP Y 13
     9 ALL1       33 GROUP        1 Z    ALL  0     ROOT ALL Z 15
    10 SEL2        2 GROUP        1 Z    SEL  0     **** SEL Z 16
    11 LYL4        9 GROUP        1 Z    LYL  0     **** LYL Z 18
    12 GLL5       25 GROUP        1 Z    GLL  0     **** GLL Z 20
@<TRIPOS>SET

