#    Name: 1a97_5GP_1_ligand
#    Modification time : Mon Mar 24 18:08:01 2014

@<TRIPOS>MOLECULE
1a97_5GP_1_ligand
   36    38     1     0     0
SMALL
NO_CHARGES


@<TRIPOS>ATOM
      1 P          17.7600  138.7470   22.0450 P.3       1 5GP305      0.0000 
      2 O1P        16.6420  137.9110   22.5340 O.co2     1 5GP305      0.0000 
      3 O2P        17.8200  138.7910   20.5900 O.co2     1 5GP305      0.0000 
      4 O3P        17.7950  140.0570   22.7260 O.co2     1 5GP305      0.0000 
      5 O5'        19.0410  138.0870   22.6190 O.3       1 5GP305      0.0000 
      6 C5'        19.0500  136.7800   23.1530 C.3       1 5GP305      0.0000 
      7 C4'        20.3820  136.1720   23.0120 C.3       1 5GP305      0.0000 
      8 O4'        21.4170  136.8570   23.7750 O.3       1 5GP305      0.0000 
      9 C3'        20.3050  134.7980   23.5780 C.3       1 5GP305      0.0000 
     10 O3'        20.0680  133.8500   22.5250 O.3       1 5GP305      0.0000 
     11 C2'        21.6250  134.6020   24.2030 C.3       1 5GP305      0.0000 
     12 O2'        22.5560  134.0590   23.2790 O.3       1 5GP305      0.0000 
     13 C1'        22.0650  135.9780   24.7110 C.3       1 5GP305      0.0000 
     14 N9         21.5080  136.2230   26.0960 N.pl3     1 5GP305      0.0000 
     15 C8         20.5620  137.1760   26.4510 C.2       1 5GP305      0.0000 
     16 N7         20.2460  137.1770   27.7180 N.2       1 5GP305      0.0000 
     17 C5         21.0200  136.1600   28.2780 C.2       1 5GP305      0.0000 
     18 C6         21.0830  135.7080   29.6330 C.2       1 5GP305      0.0000 
     19 O6         20.4500  136.1420   30.5910 O.2       1 5GP305      0.0000 
     20 N1         21.9820  134.6570   29.8120 N.am      1 5GP305      0.0000 
     21 C2         22.7490  134.0880   28.7930 C.2       1 5GP305      0.0000 
     22 N2         23.5620  133.0880   29.1300 N.pl3     1 5GP305      0.0000 
     23 N3         22.6940  134.5110   27.5010 N.2       1 5GP305      0.0000 
     24 C4         21.8030  135.5560   27.3030 C.2       1 5GP305      0.0000 
     25 H          18.3082  136.1349   22.6430 H         1 5GP305      0.0000 
     26 H          18.7721  136.7845   24.2250 H         1 5GP305      0.0000 
     27 H          20.6571  136.0940   21.9821 H         1 5GP305      0.0000 
     28 H          19.5487  134.7789   24.3252 H         1 5GP305      0.0000 
     29 H          21.5032  133.9683   25.0742 H         1 5GP305      0.0000 
     30 H          23.0938  136.0492   24.6790 H         1 5GP305      0.0000 
     31 H          20.1775  137.7950   25.7573 H         1 5GP305      0.0000 
     32 H          22.0913  134.2622   30.7887 H         1 5GP305      0.0000 
     33 H          23.7135  132.3894   28.4307 H         1 5GP305      0.0000 
     34 H          23.9475  133.1260   30.0520 H         1 5GP305      0.0000 
     35 H          19.7819  133.0125   22.9905 H         1 5GP305      0.0000 
     36 H          22.0196  133.8576   22.4594 H         1 5GP305      0.0000 
@<TRIPOS>BOND
     1    2    1 ar   
     2    3    1 ar   
     3    4    1 ar   
     4    5    1 1    
     5    6    5 1    
     6    7    6 1    
     7   25    6 1    
     8   26    6 1    
     9    8    7 1    
    10    9    7 1    
    11   27    7 1    
    12   13    8 1    
    13   10    9 1    
    14   11    9 1    
    15   28    9 1    
    16   35   10 1    
    17   12   11 1    
    18   13   11 1    
    19   29   11 1    
    20   36   12 1    
    21   14   13 1    
    22   30   13 1    
    23   15   14 1    
    24   24   14 1    
    25   16   15 2    
    26   31   15 1    
    27   17   16 1    
    28   18   17 1    
    29   24   17 2    
    30   19   18 2    
    31   20   18 am   
    32   21   20 1    
    33   32   20 1    
    34   22   21 1    
    35   23   21 2    
    36   33   22 1    
    37   34   22 1    
    38   24   23 1    
@<TRIPOS>SUBSTRUCTURE
     1 5GP305      1 GROUP   
@<TRIPOS>SET

