#    Name: 3ske_054_1_INTS_M
#    Modification time : Mon Mar 24 17:47:27 2014

@<TRIPOS>MOLECULE
3ske_054_1_INTS_M
   69     0     9     0     0
SMALL
NO_CHARGES


@<TRIPOS>ATOM
      1 CA         24.9310   41.9970   41.5485 C.3       3 GLC5        0.0000 
      2 CA         25.7230   42.8710   43.0650 C.3       9 GLL5        0.0000 
      3 CA         24.1390   41.1230   40.0320 C.3       6 GLP5        0.0000 
      4 CA         23.9865   42.1910   43.6790 C.3       3 GLC5        0.0000 
      5 CA         22.2500   41.5110   44.2930 C.3       6 GLP5        0.0000 
      6 CA         30.3365   42.4600   41.1730 C.3       3 GLC5        0.0000 
      7 CA         28.7030   43.4120   40.9010 C.3       9 GLL5        0.0000 
      8 CA         31.9700   41.5080   41.4450 C.3       6 GLP5        0.0000 
      9 CA         29.7890   44.1340   44.0665 C.3       3 GLC5        0.0000 
     10 CA         28.8350   45.0360   42.5490 C.3       9 GLL5        0.0000 
     11 CA         30.7430   43.2320   45.5840 C.3       6 GLP5        0.0000 
     12 CA         28.5405   43.5170   44.3735 C.3       3 GLC5        0.0000 
     13 CA         27.6510   44.5820   43.1370 C.3       9 GLL5        0.0000 
     14 CA         29.4300   42.4520   45.6100 C.3       6 GLP5        0.0000 
     15 O          19.9625   47.9285   44.4450 O.2       1 ALC1        0.0000 
     16 O          21.1600   47.4710   45.0010 O.2       7 ALL1        0.0000 
     17 O          18.7650   48.3860   43.8890 O.2       4 ALP1        0.0000 
     18 N          20.6890   44.9445   43.1915 N.am      2 SEC2        0.0000 
     19 N          21.3720   45.2880   44.3400 N.am      8 SEL2        0.0000 
     20 N          20.0060   44.6010   42.0430 N.am      5 SEP2        0.0000 
     21 CA         20.9780   47.1120   46.9885 C.3       3 GLC5        0.0000 
     22 CA         21.7130   48.6050   45.5870 C.3       9 GLL5        0.0000 
     23 CA         20.2430   45.6190   48.3900 C.3       6 GLP5        0.0000 
     24 CA         21.2860   52.8045   46.4445 C.3       3 GLC5        0.0000 
     25 CA         22.1390   50.9640   46.5040 C.3       9 GLL5        0.0000 
     26 CA         20.4330   54.6450   46.3850 C.3       6 GLP5        0.0000 
     27 CA         20.2645   50.6815   47.2270 C.3       3 GLC5        0.0000 
     28 CA         18.3900   50.3990   47.9500 C.3       6 GLP5        0.0000 
     29 CA         21.6090   50.7935   48.5995 C.3       3 GLC5        0.0000 
     30 CA         21.0790   50.6230   50.6950 C.3       6 GLP5        0.0000 
     31 CA         23.0370   41.1045   50.7770 C.3       3 GLC5        0.0000 
     32 CA         24.4840   41.6520   50.0050 C.3       9 GLL5        0.0000 
     33 CA         21.5900   40.5570   51.5490 C.3       6 GLP5        0.0000 
     34 CA         25.4880   40.0565   49.1245 C.3       3 GLC5        0.0000 
     35 CA         26.4920   38.4610   48.2440 C.3       6 GLP5        0.0000 
     36 CA         27.9935   43.2555   50.4695 C.3       3 GLC5        0.0000 
     37 CA         26.2170   42.9170   50.2440 C.3       9 GLL5        0.0000 
     38 CA         29.7700   43.5940   50.6950 C.3       6 GLP5        0.0000 
     39 CA         26.5540   42.1155   51.8020 C.3       3 GLC5        0.0000 
     40 CA         26.8910   41.3140   53.3600 C.3       6 GLP5        0.0000 
     41 CA         26.2320   44.4095   51.0915 C.3       3 GLC5        0.0000 
     42 CA         26.2470   45.9020   51.9390 C.3       6 GLP5        0.0000 
     43 CA         22.9295   42.1665   50.9550 C.3       3 GLC5        0.0000 
     44 CA         24.2690   43.7760   50.3610 C.3       9 GLL5        0.0000 
     45 CA         22.7085   44.7240   50.0130 C.3       3 GLC5        0.0000 
     46 CA         21.1480   45.6720   49.6650 C.3       6 GLP5        0.0000 
     47 CA         22.8710   43.3488   47.6735 C.3       3 GLC5        0.0000 
     48 CA         25.0430   43.0600   48.2020 C.3       9 GLL5        0.0000 
     49 CA         21.0220   43.0930   47.4590 C.3       6 GLP5        0.0000 
     50 CA         26.1487   40.3072   47.5045 C.3       3 GLC5        0.0000 
     51 CA         25.7560   42.1080   47.4560 C.3       9 GLL5        0.0000 
     52 CA         22.6232   43.9015   46.5755 C.3       3 GLC5        0.0000 
     53 CA         24.4790   44.2550   46.1740 C.3       9 GLL5        0.0000 
     54 CA         27.4671   42.5851   45.8618 C.3       3 GLC5        0.0000 
     55 CA         25.2030   43.2830   45.4620 C.3       9 GLL5        0.0000 
     56 CA         27.1445   41.3792   41.9290 C.3       3 GLC5        0.0000 
     57 CA         27.9360   39.5750   41.0490 C.3       6 GLP5        0.0000 
     58 CA         27.7830   42.2623   43.5020 C.3       3 GLC5        0.0000 
     59 CA         26.9830   43.4960   42.5530 C.3       9 GLL5        0.0000 
     60 CA         29.2130   41.3410   44.1950 C.3       6 GLP5        0.0000 
     61 CA         25.7142   40.8845   50.7425 C.3       3 GLC5        0.0000 
     62 CA         24.9910   42.8640   49.6830 C.3       9 GLL5        0.0000 
     63 CA         26.6910   39.5110   51.6410 C.3       6 GLP5        0.0000 
     64 CA         25.3725   44.8950   50.3490 C.3       3 GLC5        0.0000 
     65 CA         26.1150   46.4700   50.6760 C.3       6 GLP5        0.0000 
     66 CA         28.0287   41.3630   41.1068 C.3       3 GLC5        0.0000 
     67 CA         27.5400   42.8900   41.4280 C.3       9 GLL5        0.0000 
     68 CA         28.6672   42.2460   42.6797 C.3       3 GLC5        0.0000 
     69 CA         19.9005   49.8083   46.8015 C.3       3 GLC5        0.0000 
@<TRIPOS>BOND
@<TRIPOS>SUBSTRUCTURE
     1 ALC1       15 GROUP        1 X    ALC  0     ROOT ALC X 1
     2 SEC2       18 GROUP        1 X    SEC  0     **** SEC X 2
     3 GLC5        1 GROUP        1 X    GLC  0     **** GLC X 6
     4 ALP1       17 GROUP        1 Y    ALP  0     ROOT ALP Y 8
     5 SEP2       20 GROUP        1 Y    SEP  0     **** SEP Y 9
     6 GLP5        3 GROUP        1 Y    GLP  0     **** GLP Y 13
     7 ALL1       16 GROUP        1 Z    ALL  0     ROOT ALL Z 15
     8 SEL2       19 GROUP        1 Z    SEL  0     **** SEL Z 16
     9 GLL5        2 GROUP        1 Z    GLL  0     **** GLL Z 20
@<TRIPOS>SET

