#    Name: 3ske_054_1_ligand
#    Modification time : Mon Mar 24 17:47:27 2014

@<TRIPOS>MOLECULE
3ske_054_1_ligand
   48    52     1     0     0
SMALL
NO_CHARGES


@<TRIPOS>ATOM
      1 C1         25.0430   43.0600   48.2020 C.ar      1 054578      0.0000 
      2 C2         25.7560   42.1080   47.4560 C.ar      1 054578      0.0000 
      3 C3         25.8550   42.1990   46.0740 C.ar      1 054578      0.0000 
      4 C4         24.3970   44.1490   47.5740 C.ar      1 054578      0.0000 
      5 C5         24.4790   44.2550   46.1740 C.ar      1 054578      0.0000 
      6 C6         25.2030   43.2830   45.4620 C.ar      1 054578      0.0000 
      7 N7         25.1170   43.6210   44.1430 N.pl3     1 054578      0.0000 
      8 C8         24.3820   44.7640   43.9420 C.2       1 054578      0.0000 
      9 C9         23.9700   45.1650   45.2100 C.2       1 054578      0.0000 
     10 C10        24.1360   45.3220   42.6090 C.2       1 054578      0.0000 
     11 O11        24.0140   44.6840   41.5810 O.co2     1 054578      0.0000 
     12 O12        23.8830   46.6450   42.6070 O.co2     1 054578      0.0000 
     13 C13        25.7230   42.8710   43.0650 C.3       1 054578      0.0000 
     14 C14        26.9830   43.4960   42.5530 C.ar      1 054578      0.0000 
     15 C15        24.9910   42.8640   49.6830 C.3       1 054578      0.0000 
     16 C16        27.5400   42.8900   41.4280 C.ar      1 054578      0.0000 
     17 C17        28.7030   43.4120   40.9010 C.ar      1 054578      0.0000 
     18 N18        29.3590   44.4710   41.4310 N.ar      1 054578      0.0000 
     19 C19        28.8350   45.0360   42.5490 C.ar      1 054578      0.0000 
     20 C20        27.6510   44.5820   43.1370 C.ar      1 054578      0.0000 
     21 N21        23.1910   46.3090   45.4330 N.am      1 054578      0.0000 
     22 C22        21.8730   46.2930   44.8800 C.2       1 054578      0.0000 
     23 N23        21.1600   47.4710   45.0010 N.am      1 054578      0.0000 
     24 C24        23.8400   47.3680   46.0900 C.2       1 054578      0.0000 
     25 O25        24.9800   47.3180   46.5450 O.2       1 054578      0.0000 
     26 O26        21.3720   45.2880   44.3400 O.2       1 054578      0.0000 
     27 C27        23.3810   49.7890   46.6620 C.2       1 054578      0.0000 
     28 C28        23.0220   48.5760   46.1250 C.2       1 054578      0.0000 
     29 C29        21.7130   48.6050   45.5870 C.2       1 054578      0.0000 
     30 C30        21.1090   49.8300   45.7190 C.2       1 054578      0.0000 
     31 S31        22.1390   50.9640   46.5040 S.3       1 054578      0.0000 
     32 F32        24.4840   41.6520   50.0050 F         1 054578      0.0000 
     33 F33        26.2170   42.9170   50.2440 F         1 054578      0.0000 
     34 F34        24.2690   43.7760   50.3610 F         1 054578      0.0000 
     35 N35        29.5120   46.1120   43.1280 N.pl3     1 054578      0.0000 
     36 H          26.2155   41.3237   47.9532 H         1 054578      0.0000 
     37 H          26.3659   41.5268   45.5309 H         1 054578      0.0000 
     38 H          23.8906   44.8315   48.1192 H         1 054578      0.0000 
     39 H          25.0127   42.7677   42.2173 H         1 054578      0.0000 
     40 H          25.9535   41.8356   43.3946 H         1 054578      0.0000 
     41 H          27.0907   42.0758   41.0071 H         1 054578      0.0000 
     42 H          29.0977   42.9496   40.0301 H         1 054578      0.0000 
     43 H          27.2801   45.0284   43.9707 H         1 054578      0.0000 
     44 H          20.1817   47.5146   44.6449 H         1 054578      0.0000 
     45 H          24.1445   50.1076   47.0885 H         1 054578      0.0000 
     46 H          20.2835   50.1778   45.4837 H         1 054578      0.0000 
     47 H          30.3364   46.4200   42.6532 H         1 054578      0.0000 
     48 H          29.1141   46.4818   43.9676 H         1 054578      0.0000 
@<TRIPOS>BOND
     1    2    1 ar   
     2    4    1 ar   
     3   15    1 1    
     4    3    2 ar   
     5   36    2 1    
     6    6    3 ar   
     7   37    3 1    
     8    5    4 ar   
     9   38    4 1    
    10    6    5 ar   
    11    9    5 1    
    12    7    6 1    
    13    8    7 1    
    14   13    7 1    
    15    9    8 2    
    16   10    8 1    
    17   21    9 1    
    18   11   10 ar   
    19   12   10 ar   
    20   14   13 1    
    21   39   13 1    
    22   40   13 1    
    23   16   14 ar   
    24   20   14 ar   
    25   32   15 1    
    26   33   15 1    
    27   34   15 1    
    28   17   16 ar   
    29   41   16 1    
    30   18   17 ar   
    31   42   17 1    
    32   19   18 ar   
    33   20   19 ar   
    34   35   19 1    
    35   43   20 1    
    36   22   21 am   
    37   24   21 am   
    38   23   22 am   
    39   26   22 2    
    40   29   23 1    
    41   44   23 1    
    42   25   24 2    
    43   28   24 1    
    44   28   27 2    
    45   31   27 1    
    46   45   27 1    
    47   29   28 1    
    48   30   29 2    
    49   31   30 1    
    50   46   30 1    
    51   47   35 1    
    52   48   35 1    
@<TRIPOS>SUBSTRUCTURE
     1 054578      1 GROUP   
@<TRIPOS>SET

