#    Name: 1coz_CTP_2_INTS_M
#    Modification time : Mon Mar 24 20:51:36 2014

@<TRIPOS>MOLECULE
1coz_CTP_2_INTS_M
   55     0    12     0     0
SMALL
NO_CHARGES


@<TRIPOS>ATOM
      1 N          19.7920   10.5750  -38.2600 N.am      2 SEC2        0.0000 
      2 N          19.5450   12.0370  -38.1820 N.am     10 SEL2        0.0000 
      3 N          20.0390    9.1130  -38.3380 N.am      6 SEP2        0.0000 
      4 CA         19.4945   16.0860  -37.1845 C.3       4 GLC5        0.0000 
      5 CA         18.8830   14.6330  -38.4010 C.3      12 GLL5        0.0000 
      6 CA         20.1060   17.5390  -35.9680 C.3       8 GLP5        0.0000 
      7 O          17.6315   10.2725  -36.9435 O.2       1 ALC1        0.0000 
      8 O          17.7130   11.5670  -36.9070 O.2       9 ALL1        0.0000 
      9 O          17.5500    8.9780  -36.9800 O.2       5 ALP1        0.0000 
     10 O          16.6115   11.7235  -36.3195 O.2       1 ALC1        0.0000 
     11 O          15.5100   11.8800  -35.7320 O.2       5 ALP1        0.0000 
     12 CA         22.8175   15.0035  -39.8050 C.3       4 GLC5        0.0000 
     13 CA         20.8240   15.0730  -39.8430 C.3      12 GLL5        0.0000 
     14 CA         24.8110   14.9340  -39.7670 C.3       8 GLP5        0.0000 
     15 CA         19.4555   13.3080  -41.5350 C.3       4 GLC5        0.0000 
     16 CA         20.1020   15.3360  -41.1350 C.3      12 GLL5        0.0000 
     17 CA         18.8090   11.2800  -41.9350 C.3       8 GLP5        0.0000 
     18 CA         23.0560   16.0905  -40.0695 C.3       4 GLC5        0.0000 
     19 CA         21.3010   17.2470  -40.3720 C.3      12 GLL5        0.0000 
     20 CA         20.7475   20.3295  -40.9595 C.3       4 GLC5        0.0000 
     21 CA         20.5490   18.5510  -40.2740 C.3      12 GLL5        0.0000 
     22 CA         20.9460   22.1080  -41.6450 C.3       8 GLP5        0.0000 
     23 CA         20.3275   18.0450  -38.1210 C.3       4 GLC5        0.0000 
     24 N          18.7395   21.6000  -39.2500 N.am      2 SEC2        0.0000 
     25 N          18.0800   20.3060  -38.5320 N.am     10 SEL2        0.0000 
     26 N          19.3990   22.8940  -39.9680 N.am      6 SEP2        0.0000 
     27 N          18.7555   21.3925  -37.8730 N.am      2 SEC2        0.0000 
     28 N          19.4310   22.4790  -37.2140 N.am      6 SEP2        0.0000 
     29 N          18.5080   19.2800  -37.2190 N.am      2 SEC2        0.0000 
     30 N          18.9360   18.2540  -35.9060 N.am      6 SEP2        0.0000 
     31 N          18.2040   17.9895  -36.9635 N.am      2 SEC2        0.0000 
     32 N          17.4720   17.7250  -38.0210 N.am     10 SEL2        0.0000 
     33 N          16.3930   16.1795  -35.6410 N.am      2 SEC2        0.0000 
     34 N          15.5540   16.3370  -37.0370 N.am     10 SEL2        0.0000 
     35 N          17.2320   16.0220  -34.2450 N.am      6 SEP2        0.0000 
     36 N          14.6560   16.4620  -36.0580 N.am      2 SEC2        0.0000 
     37 N          13.7580   16.5870  -35.0790 N.am      6 SEP2        0.0000 
     38 NZ         15.6875   14.7960  -39.6235 N.4       3 LYC4        0.0000 
     39 NZ         15.9540   16.2190  -39.5740 N.4      11 LYL4        0.0000 
     40 NZ         16.1960   13.1860  -40.7310 N.4       7 LYP4        0.0000 
     41 N          16.2780   15.2280  -40.5060 N.am      2 SEC2        0.0000 
     42 N          15.9540   16.2190  -39.5740 N.am     10 SEL2        0.0000 
     43 N          16.6020   14.2370  -41.4380 N.am      6 SEP2        0.0000 
     44 N          15.6875   14.7960  -39.6235 N.am      2 SEC2        0.0000 
     45 N          15.4210   13.3730  -39.6730 N.am      6 SEP2        0.0000 
     46 N          11.9065   17.1860  -36.9390 N.am      2 SEC2        0.0000 
     47 N          12.7520   16.9550  -38.2900 N.am     10 SEL2        0.0000 
     48 N          11.0610   17.4170  -35.5880 N.am      6 SEP2        0.0000 
     49 NZ         12.7040   19.6655  -41.1695 N.4       3 LYC4        0.0000 
     50 NZ         13.3270   18.1180  -40.5340 N.4      11 LYL4        0.0000 
     51 NZ         12.0810   21.2130  -41.8050 N.4       7 LYP4        0.0000 
     52 NZ         12.3290   20.3665  -40.1420 N.4       3 LYC4        0.0000 
     53 NZ         12.5770   19.5200  -38.4790 N.4      11 LYL4        0.0000 
     54 CA         22.2970   18.9440  -39.4410 C.3       4 GLC5        0.0000 
     55 CA         23.6690   19.9890  -38.5590 C.3       8 GLP5        0.0000 
@<TRIPOS>BOND
@<TRIPOS>SUBSTRUCTURE
     1 ALC1        7 GROUP        1 X    ALC  0     ROOT ALC X 1
     2 SEC2        1 GROUP        1 X    SEC  0     **** SEC X 2
     3 LYC4       38 GROUP        1 X    LYC  0     **** LYC X 4
     4 GLC5        4 GROUP        1 X    GLC  0     **** GLC X 6
     5 ALP1        9 GROUP        1 Y    ALP  0     ROOT ALP Y 8
     6 SEP2        3 GROUP        1 Y    SEP  0     **** SEP Y 9
     7 LYP4       40 GROUP        1 Y    LYP  0     **** LYP Y 11
     8 GLP5        6 GROUP        1 Y    GLP  0     **** GLP Y 13
     9 ALL1        8 GROUP        1 Z    ALL  0     ROOT ALL Z 15
    10 SEL2        2 GROUP        1 Z    SEL  0     **** SEL Z 16
    11 LYL4       39 GROUP        1 Z    LYL  0     **** LYL Z 18
    12 GLL5        5 GROUP        1 Z    GLL  0     **** GLL Z 20
@<TRIPOS>SET

