#    Name: 1coz_CTP_2_ligand
#    Modification time : Mon Mar 24 20:51:36 2014

@<TRIPOS>MOLECULE
1coz_CTP_2_ligand
   41    42     1     0     0
SMALL
NO_CHARGES


@<TRIPOS>ATOM
      1 N1         19.9930   14.2050  -39.0070 N.am      1 CTP630      0.0000 
      2 C2         20.2920   12.8940  -38.8680 C.2       1 CTP630      0.0000 
      3 N3         19.5450   12.0370  -38.1820 N.2       1 CTP630      0.0000 
      4 C4         18.4330   12.4610  -37.5830 C.2       1 CTP630      0.0000 
      5 C5         18.0650   13.7930  -37.6730 C.2       1 CTP630      0.0000 
      6 C6         18.8830   14.6330  -38.4010 C.2       1 CTP630      0.0000 
      7 O2         21.3110   12.4070  -39.3880 O.2       1 CTP630      0.0000 
      8 N4         17.7130   11.5670  -36.9070 N.pl3     1 CTP630      0.0000 
      9 C1'        20.8240   15.0730  -39.8430 C.3       1 CTP630      0.0000 
     10 C2'        20.1020   15.3360  -41.1350 C.3       1 CTP630      0.0000 
     11 O2'        20.2680   14.2060  -41.9550 O.3       1 CTP630      0.0000 
     12 C3'        20.7740   16.5710  -41.6330 C.3       1 CTP630      0.0000 
     13 C4'        21.3010   17.2470  -40.3720 C.3       1 CTP630      0.0000 
     14 O4'        20.9990   16.3680  -39.2850 O.3       1 CTP630      0.0000 
     15 O3'        21.9670   16.2850  -42.3880 O.3       1 CTP630      0.0000 
     16 C5'        20.5490   18.5510  -40.2740 C.3       1 CTP630      0.0000 
     17 O5'        19.7470   18.5480  -39.1240 O.3       1 CTP630      0.0000 
     18 PA         18.1230   18.8570  -39.0550 P.3       1 CTP630      0.0000 
     19 O1A        17.4980   18.8040  -40.4720 O.co2     1 CTP630      0.0000 
     20 O2A        18.0800   20.3060  -38.5320 O.co2     1 CTP630      0.0000 
     21 O3A        17.4720   17.7250  -38.0210 O.3       1 CTP630      0.0000 
     22 PB         15.9490   17.1590  -38.3140 P.3       1 CTP630      0.0000 
     23 O1B        15.5540   16.3370  -37.0370 O.co2     1 CTP630      0.0000 
     24 O2B        15.9540   16.2190  -39.5740 O.co2     1 CTP630      0.0000 
     25 O3B        14.9140   18.4400  -38.4750 O.3       1 CTP630      0.0000 
     26 PG         13.3420   18.2510  -38.9590 P.3       1 CTP630      0.0000 
     27 O1G        12.7520   16.9550  -38.2900 O.co2     1 CTP630      0.0000 
     28 O2G        13.3270   18.1180  -40.5340 O.co2     1 CTP630      0.0000 
     29 O3G        12.5770   19.5200  -38.4790 O.co2     1 CTP630      0.0000 
     30 H          17.2254   14.1362  -37.2201 H         1 CTP630      0.0000 
     31 H          18.6038   15.6497  -38.4700 H         1 CTP630      0.0000 
     32 H          16.9034   11.9187  -36.4371 H         1 CTP630      0.0000 
     33 H          18.0470   10.6247  -36.9304 H         1 CTP630      0.0000 
     34 H          21.7562   14.6169  -40.0761 H         1 CTP630      0.0000 
     35 H          19.0902   15.5541  -40.8951 H         1 CTP630      0.0000 
     36 H          20.1189   17.2127  -42.1056 H         1 CTP630      0.0000 
     37 H          22.3282   17.4243  -40.4957 H         1 CTP630      0.0000 
     38 H          19.9544   18.6667  -41.1935 H         1 CTP630      0.0000 
     39 H          21.2890   19.3662  -40.2610 H         1 CTP630      0.0000 
     40 H          20.6199   13.4945  -41.3468 H         1 CTP630      0.0000 
     41 H          21.9276   15.3028  -42.5717 H         1 CTP630      0.0000 
@<TRIPOS>BOND
     1    2    1 am   
     2    6    1 1    
     3    9    1 1    
     4    3    2 1    
     5    7    2 2    
     6    4    3 2    
     7    5    4 1    
     8    8    4 1    
     9    6    5 2    
    10   30    5 1    
    11   31    6 1    
    12   32    8 1    
    13   33    8 1    
    14   10    9 1    
    15   14    9 1    
    16   34    9 1    
    17   11   10 1    
    18   12   10 1    
    19   35   10 1    
    20   40   11 1    
    21   13   12 1    
    22   15   12 1    
    23   36   12 1    
    24   14   13 1    
    25   16   13 1    
    26   37   13 1    
    27   41   15 1    
    28   17   16 1    
    29   38   16 1    
    30   39   16 1    
    31   18   17 1    
    32   19   18 ar   
    33   20   18 ar   
    34   21   18 1    
    35   22   21 1    
    36   23   22 ar   
    37   24   22 ar   
    38   25   22 1    
    39   26   25 1    
    40   27   26 ar   
    41   28   26 ar   
    42   29   26 ar   
@<TRIPOS>SUBSTRUCTURE
     1 CTP630      1 GROUP   
@<TRIPOS>SET

