#    Name: 3vxe_PRO_ARG_DPN_1_INTS_M
#    Modification time : Tue Mar 25 01:48:35 2014

@<TRIPOS>MOLECULE
3vxe_PRO_ARG_DPN_1_INTS_M
   78     0    12     0     0
SMALL
NO_CHARGES


@<TRIPOS>ATOM
      1 CA          5.2170  -36.3070    3.1990 C.3       4 GLC5        0.0000 
      2 CA          5.2640  -38.2160    2.3280 C.3      12 GLL5        0.0000 
      3 CA          5.1700  -34.3980    4.0700 C.3       8 GLP5        0.0000 
      4 CA          6.6695  -38.7515    3.7110 C.3       4 GLC5        0.0000 
      5 CA          8.0750  -39.2870    5.0940 C.3       8 GLP5        0.0000 
      6 CA          4.7725  -35.4965    1.6560 C.3       4 GLC5        0.0000 
      7 CA          5.1740  -37.1510    1.1830 C.3      12 GLL5        0.0000 
      8 CA          4.3710  -33.8420    2.1290 C.3       8 GLP5        0.0000 
      9 CA          6.5245  -37.0880   -1.4790 C.3       4 GLC5        0.0000 
     10 CA          5.9060  -37.7770    0.0450 C.3      12 GLL5        0.0000 
     11 CA          7.1430  -36.3990   -3.0030 C.3       8 GLP5        0.0000 
     12 O           4.9320  -37.3305    4.9395 O.2       1 ALC1        0.0000 
     13 O           3.7630  -37.8590    4.2060 O.2       9 ALL1        0.0000 
     14 O           6.1010  -36.8020    5.6730 O.2       5 ALP1        0.0000 
     15 N          -0.7460  -37.0180    5.5620 N.am      2 SEC2        0.0000 
     16 N           0.6220  -36.6030    5.4610 N.am     10 SEL2        0.0000 
     17 N          -2.1140  -37.4330    5.6630 N.am      6 SEP2        0.0000 
     18 N           0.6895  -35.7950    6.6890 N.am      2 SEC2        0.0000 
     19 N           0.7570  -34.9870    7.9170 N.am      6 SEP2        0.0000 
     20 CA          3.0515  -37.5310    8.2075 C.3       4 GLC5        0.0000 
     21 CA          2.7560  -38.3990    6.4130 C.3      12 GLL5        0.0000 
     22 CA          3.3470  -36.6630   10.0020 C.3       8 GLP5        0.0000 
     23 CA          3.4785  -38.4970    8.9170 C.3       4 GLC5        0.0000 
     24 CA          3.6100  -40.3310    7.8320 C.3      12 GLL5        0.0000 
     25 CA          5.1800  -41.6925    7.2965 C.3       4 GLC5        0.0000 
     26 CA          6.7500  -43.0540    6.7610 C.3       8 GLP5        0.0000 
     27 O           3.5380  -42.5115    6.6480 O.2       1 ALC1        0.0000 
     28 O           3.6340  -41.7880    7.8760 O.2       9 ALL1        0.0000 
     29 O           3.4420  -43.2350    5.4200 O.2       5 ALP1        0.0000 
     30 OD1         3.4785  -44.5525   10.1590 O.co2     3 ASC3        0.0000 
     31 OD1         3.8190  -42.4650    9.0030 O.co2    11 ASL3        0.0000 
     32 OD1         3.2070  -45.2890   11.3340 O.co2     7 ASP3        0.0000 
     33 OD1         3.8630  -42.6475   11.3265 O.co2     3 ASC3        0.0000 
     34 OD1         3.6370  -43.4320   12.4990 O.co2     7 ASP3        0.0000 
     35 O           3.8630  -42.6475   11.3265 O.2       1 ALC1        0.0000 
     36 O           4.0890  -41.8630   10.1540 O.2       9 ALL1        0.0000 
     37 O           3.6370  -43.4320   12.4990 O.2       5 ALP1        0.0000 
     38 O           3.4785  -44.5525   10.1590 O.2       1 ALC1        0.0000 
     39 O           3.7500  -43.8160    8.9840 O.2       9 ALL1        0.0000 
     40 O           3.2070  -45.2890   11.3340 O.2       5 ALP1        0.0000 
     41 O           3.3075  -44.6995    7.8820 O.2       1 ALC1        0.0000 
     42 O           2.8650  -45.5830    6.7800 O.2       5 ALP1        0.0000 
     43 N           2.9775  -35.2750    3.5275 N.am      2 SEC2        0.0000 
     44 N           1.8480  -36.0240    3.7930 N.am     10 SEL2        0.0000 
     45 N           4.1070  -34.5260    3.2620 N.am      6 SEP2        0.0000 
     46 O           5.9645  -43.2430    3.2495 O.2       1 ALC1        0.0000 
     47 O           5.3100  -42.9370    2.0690 O.2       9 ALL1        0.0000 
     48 O           6.6190  -43.5490    4.4300 O.2       5 ALP1        0.0000 
     49 N           6.1760  -41.1705    4.8820 N.am      2 SEC2        0.0000 
     50 N           5.6840  -40.6600    3.5250 N.am     10 SEL2        0.0000 
     51 N           6.6680  -41.6810    6.2390 N.am      6 SEP2        0.0000 
     52 CA          8.8425  -42.1100    3.5340 C.3       4 GLC5        0.0000 
     53 CA          7.6260  -42.2250    1.6570 C.3      12 GLL5        0.0000 
     54 CA         10.0590  -41.9950    5.4110 C.3       8 GLP5        0.0000 
     55 CA          9.0665  -38.4830    2.2060 C.3       4 GLC5        0.0000 
     56 CA          9.4600  -40.5130    1.8880 C.3      12 GLL5        0.0000 
     57 CA          8.6730  -36.4530    2.5240 C.3       8 GLP5        0.0000 
     58 CA          7.1178  -37.0916    1.7121 C.3       4 GLC5        0.0000 
     59 CA          3.9313  -38.4040   -0.3930 C.3       4 GLC5        0.0000 
     60 CA          2.2900  -38.4340   -1.1740 C.3       8 GLP5        0.0000 
     61 CA          2.5705  -36.2298    5.9778 C.3       4 GLC5        0.0000 
     62 CA          2.4820  -38.0300    4.9140 C.3      12 GLL5        0.0000 
     63 CA          2.5220  -34.2450    6.2920 C.3       8 GLP5        0.0000 
     64 CA          1.4647  -40.7720    7.9030 C.3       4 GLC5        0.0000 
     65 CA          3.0630  -39.9110    6.4720 C.3      12 GLL5        0.0000 
     66 CA         -0.4070  -41.4230    8.6540 C.3       8 GLP5        0.0000 
     67 CA          0.8100  -39.3649    5.7299 C.3       4 GLC5        0.0000 
     68 CA         -1.2210  -39.6670    5.3920 C.3       8 GLP5        0.0000 
     69 CA          5.1324  -39.5365    6.6536 C.3       4 GLC5        0.0000 
     70 CA          7.0050  -39.3300    6.1700 C.3       8 GLP5        0.0000 
     71 CA         10.0346  -42.6500    1.9492 C.3       4 GLC5        0.0000 
     72 CA         11.2850  -44.1830    2.2740 C.3       8 GLP5        0.0000 
     73 CA         12.1705  -38.9035    0.9090 C.3       4 GLC5        0.0000 
     74 CA         10.3340  -39.5690    1.3750 C.3      12 GLL5        0.0000 
     75 CA         14.0070  -38.3330    1.1270 C.3       8 GLP5        0.0000 
     76 CA         10.0970  -37.6965    1.2055 C.3       4 GLC5        0.0000 
     77 CA          9.8600  -35.9190    1.7200 C.3       8 GLP5        0.0000 
     78 CA          8.8774  -39.7520    3.2599 C.3       4 GLC5        0.0000 
@<TRIPOS>BOND
@<TRIPOS>SUBSTRUCTURE
     1 ALC1       12 GROUP        1 X    ALC  0     ROOT ALC X 1
     2 SEC2       15 GROUP        1 X    SEC  0     **** SEC X 2
     3 ASC3       30 GROUP        1 X    ASC  0     **** ASC X 3
     4 GLC5        1 GROUP        1 X    GLC  0     **** GLC X 6
     5 ALP1       14 GROUP        1 Y    ALP  0     ROOT ALP Y 8
     6 SEP2       17 GROUP        1 Y    SEP  0     **** SEP Y 9
     7 ASP3       32 GROUP        1 Y    ASP  0     **** ASP Y 10
     8 GLP5        3 GROUP        1 Y    GLP  0     **** GLP Y 13
     9 ALL1       13 GROUP        1 Z    ALL  0     ROOT ALL Z 15
    10 SEL2       16 GROUP        1 Z    SEL  0     **** SEL Z 16
    11 ASL3       31 GROUP        1 Z    ASL  0     **** ASL Z 17
    12 GLL5        2 GROUP        1 Z    GLL  0     **** GLL Z 20
@<TRIPOS>SET

