#    Name: 3vxe_PRO_ARG_DPN_1_ligand
#    Modification time : Tue Mar 25 01:48:35 2014

@<TRIPOS>MOLECULE
3vxe_PRO_ARG_DPN_1_ligand
   61    62     3     0     0
SMALL
NO_CHARGES


@<TRIPOS>ATOM
      1 N           5.6120  -39.4620    1.6130 N.am      1 PRO2        0.0000
      2 CA          5.2640  -38.2160    2.3280 C.3       1 PRO2        0.0000
      3 C           3.9070  -38.3610    2.9970 C.2       1 PRO2        0.0000
      4 O           2.9740  -38.9430    2.4110 O.2       1 PRO2        0.0000
      5 CB          5.1740  -37.1510    1.1830 C.3       1 PRO2        0.0000
      6 CG          5.9060  -37.7770    0.0450 C.3       1 PRO2        0.0000
      7 CD          5.6050  -39.2840    0.1620 C.3       1 PRO2        0.0000
      8 HA          6.0041  -37.9312    2.9936 H         1 PRO2        0.0000
      9 HB2         5.6586  -36.2658    1.5136 H         1 PRO2        0.0000
     10 HB3         4.1493  -37.0018    0.9476 H         1 PRO2        0.0000
     11 HG2         6.9584  -37.6274    0.1411 H         1 PRO2        0.0000
     12 HG3         5.5316  -37.4224   -0.8895 H         1 PRO2        0.0000
     13 HD2         4.6508  -39.4701   -0.2528 H         1 PRO2        0.0000
     14 HD3         6.3870  -39.8209   -0.3042 H         1 PRO2        0.0000
     15 N           3.7630  -37.8590    4.2060 N.am      2 ARG3        0.0000
     16 CA          2.4820  -38.0300    4.9140 C.3       2 ARG3        0.0000
     17 C           1.5650  -36.8840    4.6890 C.2       2 ARG3        0.0000
     18 O           0.6220  -36.6030    5.4610 O.2       2 ARG3        0.0000
     19 CB          2.7560  -38.3990    6.4130 C.3       2 ARG3        0.0000
     20 CG          3.0630  -39.9110    6.4720 C.3       2 ARG3        0.0000
     21 CD          3.6100  -40.3310    7.8320 C.3       2 ARG3        0.0000
     22 NE          3.6340  -41.7880    7.8760 N.pl3     2 ARG3        0.0000
     23 CZ          3.8190  -42.4650    9.0030 C.cat     2 ARG3        0.0000
     24 NH1         4.0890  -41.8630   10.1540 N.pl3     2 ARG3        0.0000
     25 NH2         3.7500  -43.8160    8.9840 N.pl3     2 ARG3        0.0000
     26 OXT         1.8480  -36.0240    3.7930 O.2       2 ARG3        0.0000
     27 HNCA        4.4917  -37.3431    4.7102 H         2 ARG3        0.0000
     28 HA          1.9961  -38.9503    4.4758 H         2 ARG3        0.0000
     29 HB2         1.8796  -38.1851    6.9866 H         2 ARG3        0.0000
     30 HB3         3.6031  -37.8442    6.7555 H         2 ARG3        0.0000
     31 HG2         3.7936  -40.1508    5.6959 H         2 ARG3        0.0000
     32 HG3         2.1441  -40.4636    6.2627 H         2 ARG3        0.0000
     33 HD2         2.9628  -39.9257    8.6032 H         2 ARG3        0.0000
     34 HD3         4.6076  -39.9185    7.9439 H         2 ARG3        0.0000
     35 HE          3.4951  -42.2679    6.9560 H         2 ARG3        0.0000
     36 HH11        4.1785  -42.4591   10.9519 H         2 ARG3        0.0000
     37 HH12        4.1785  -40.8676   10.1196 H         2 ARG3        0.0000
     38 HH21        3.8541  -44.2744    9.8666 H         2 ARG3        0.0000
     39 HH22        3.6010  -44.2364    8.0890 H         2 ARG3        0.0000
     40 N           5.3100  -42.9370    2.0690 N.4       3 DPN1        0.0000
     41 CA          6.1550  -41.8580    1.5070 C.3       3 DPN1        0.0000
     42 C           5.8080  -40.5850    2.2680 C.2       3 DPN1        0.0000
     43 O           5.6840  -40.6600    3.5250 O.2       3 DPN1        0.0000
     44 CB          7.6260  -42.2250    1.6570 C.3       3 DPN1        0.0000
     45 CG          8.5910  -41.2170    1.0650 C.ar      3 DPN1        0.0000
     46 CD1         8.6040  -41.0150   -0.3540 C.ar      3 DPN1        0.0000
     47 CD2         9.4600  -40.5130    1.8880 C.ar      3 DPN1        0.0000
     48 CE1         9.5010  -40.0840   -0.8390 C.ar      3 DPN1        0.0000
     49 CE2        10.3340  -39.5690    1.3750 C.ar      3 DPN1        0.0000
     50 CZ         10.3340  -39.3790    0.0070 C.ar      3 DPN1        0.0000
     51 H           5.9210  -41.7188    0.4729 H         3 DPN1        0.0000
     52 H           7.7970  -43.2104    1.1828 H         3 DPN1        0.0000
     53 H           7.8527  -42.3535    2.7328 H         3 DPN1        0.0000
     54 H           7.9846  -41.5347   -0.9417 H         3 DPN1        0.0000
     55 H           9.4533  -40.6995    2.9104 H         3 DPN1        0.0000
     56 H           9.5503  -39.9099   -1.8644 H         3 DPN1        0.0000
     57 H          10.9488  -39.0393    1.9813 H         3 DPN1        0.0000
     58 H          10.9912  -38.6729   -0.4044 H         3 DPN1        0.0000
     59 H           4.4391  -42.5858    2.4128 H         3 DPN1        0.0000
     60 H           5.0954  -43.6348    1.3855 H         3 DPN1        0.0000
     61 H           5.7599  -43.4021    2.8314 H         3 DPN1        0.0000
@<TRIPOS>BOND
     1    2    1 1
     2    7    1 1
     3    3    2 1
     4    5    2 1
     5    8    2 1
     6    4    3 2
     7    6    5 1
     8    9    5 1
     9   10    5 1
    10    7    6 1
    11   11    6 1
    12   12    6 1
    13   13    7 1
    14   14    7 1
    15   16   15 1
    16   27   15 1
    17   17   16 1
    18   19   16 1
    19   28   16 1
    20   18   17 2
    21   26   17 2
    22   20   19 1
    23   29   19 1
    24   30   19 1
    25   21   20 1
    26   31   20 1
    27   32   20 1
    28   22   21 1
    29   33   21 1
    30   34   21 1
    31   23   22 ar
    32   35   22 1
    33   24   23 ar
    34   25   23 ar
    35   36   24 1
    36   37   24 1
    37   38   25 1
    38   39   25 1
    39   41   40 1
    40   59   40 1
    41   60   40 1
    42   61   40 1
    43   42   41 1
    44   44   41 1
    45   51   41 1
    46   43   42 2
    47   45   44 1
    48   52   44 1
    49   53   44 1
    50   46   45 ar
    51   47   45 ar
    52   48   46 ar
    53   54   46 1
    54   49   47 ar
    55   55   47 1
    56   50   48 ar
    57   56   48 1
    58   50   49 ar
    59   57   49 1
    60   58   50 1
    61   42    1 am
    62   15    3 am
@<TRIPOS>SUBSTRUCTURE
     1 PRO2        1 RESIDUE
     2 ARG3       15 RESIDUE
     3 DPN1       40 GROUP
@<TRIPOS>SET

