#    Name: 3zrb_OR8_1_INTS_M
#    Modification time : Tue Mar 25 03:51:19 2014

@<TRIPOS>MOLECULE
3zrb_OR8_1_INTS_M
   59     0     6     0     0
SMALL
NO_CHARGES


@<TRIPOS>ATOM
      1 CA         23.8045  -12.1035   10.1555 C.3       2 GLC5        0.0000 
      2 CA         25.0980  -12.7100   11.4620 C.3       6 GLL5        0.0000 
      3 CA         22.5110  -11.4970    8.8490 C.3       4 GLP5        0.0000 
      4 CA         22.8985  -13.1195   11.4435 C.3       2 GLC5        0.0000 
      5 CA         20.6990  -13.5290   11.4250 C.3       4 GLP5        0.0000 
      6 CA         28.2135  -16.4055    9.6620 C.3       2 GLC5        0.0000 
      7 CA         27.2230  -15.0960   10.8540 C.3       6 GLL5        0.0000 
      8 CA         29.2040  -17.7150    8.4700 C.3       4 GLP5        0.0000 
      9 CA         26.3855  -15.3800   12.6340 C.3       2 GLC5        0.0000 
     10 CA         25.5480  -15.6640   14.4140 C.3       4 GLP5        0.0000 
     11 CA         26.0100  -16.3785   10.5730 C.3       2 GLC5        0.0000 
     12 CA         24.7970  -17.6610   10.2920 C.3       4 GLP5        0.0000 
     13 CA         30.8225  -12.6060   14.3990 C.3       2 GLC5        0.0000 
     14 CA         30.1090  -11.6080   12.9390 C.3       6 GLL5        0.0000 
     15 CA         31.5360  -13.6040   15.8590 C.3       4 GLP5        0.0000 
     16 CA         31.2510  -12.4695   11.6730 C.3       2 GLC5        0.0000 
     17 CA         32.3930  -13.3310   10.4070 C.3       4 GLP5        0.0000 
     18 O          29.0730   -9.0095   11.4550 O.2       1 ALC1        0.0000 
     19 O          27.7630   -9.2490   11.7020 O.2       5 ALL1        0.0000 
     20 O          30.3830   -8.7700   11.2080 O.2       3 ALP1        0.0000 
     21 CA         25.6345   -8.1235    9.1350 C.3       2 GLC5        0.0000 
     22 CA         27.1770   -9.0430   10.3590 C.3       6 GLL5        0.0000 
     23 CA         24.0920   -7.2040    7.9110 C.3       4 GLP5        0.0000 
     24 CA         25.6085   -7.9890   11.3280 C.3       2 GLC5        0.0000 
     25 CA         24.0400   -6.9350   12.2970 C.3       4 GLP5        0.0000 
     26 CA         27.8335   -7.4075   11.6725 C.3       2 GLC5        0.0000 
     27 CA         28.4900   -5.7720   12.9860 C.3       4 GLP5        0.0000 
     28 CA         30.4445  -12.7625    9.5390 C.3       2 GLC5        0.0000 
     29 CA         28.4960  -12.1940    8.6710 C.3       6 GLL5        0.0000 
     30 CA         24.5790  -15.6625    6.0200 C.3       2 GLC5        0.0000 
     31 CA         26.3180  -14.7150    6.9950 C.3       6 GLL5        0.0000 
     32 CA         22.8400  -16.6100    5.0450 C.3       4 GLP5        0.0000 
     33 CA         23.7725  -13.1215    8.3185 C.3       2 GLC5        0.0000 
     34 CA         25.0340  -14.7460    7.7880 C.3       6 GLL5        0.0000 
     35 CA         23.4930  -15.6205    7.0390 C.3       2 GLC5        0.0000 
     36 CA         21.9520  -16.4950    6.2900 C.3       4 GLP5        0.0000 
     37 CA         24.9155  -16.2035    9.0400 C.3       2 GLC5        0.0000 
     38 CA         23.2445  -14.9385    8.7070 C.3       2 GLC5        0.0000 
     39 CA         21.4550  -15.1310    9.6260 C.3       4 GLP5        0.0000 
     40 CA         31.2045  -14.2135    5.2295 C.3       2 GLC5        0.0000 
     41 CA         29.6110  -13.5190    5.8180 C.3       6 GLL5        0.0000 
     42 CA         32.7980  -14.9080    4.6410 C.3       4 GLP5        0.0000 
     43 CA         29.9845  -11.5455    5.4775 C.3       2 GLC5        0.0000 
     44 CA         30.3580   -9.5720    5.1370 C.3       4 GLP5        0.0000 
     45 CA         29.8375  -15.5260    6.6095 C.3       2 GLC5        0.0000 
     46 CA         30.0640  -17.5330    7.4010 C.3       4 GLP5        0.0000 
     47 CA         25.7508  -14.2020   13.0162 C.3       2 GLC5        0.0000 
     48 CA         26.8090  -12.7700   11.7750 C.3       6 GLL5        0.0000 
     49 CA         28.3706   -8.7716    8.6015 C.3       2 GLC5        0.0000 
     50 CA         27.2320  -10.2920    9.5130 C.3       6 GLL5        0.0000 
     51 CA         28.9330   -7.1870    7.5160 C.3       4 GLP5        0.0000 
     52 CA         24.3238  -11.3785    8.6385 C.3       2 GLC5        0.0000 
     53 CA         26.0990  -10.6940    8.8230 C.3       6 GLL5        0.0000 
     54 CA         26.5870  -11.4100    6.1498 C.3       2 GLC5        0.0000 
     55 CA         26.1740  -11.8260    8.0330 C.3       6 GLL5        0.0000 
     56 CA         26.4130  -10.6080    4.2920 C.3       4 GLP5        0.0000 
     57 CA         25.3881  -13.6671    5.6478 C.3       2 GLC5        0.0000 
     58 CA         27.3310  -13.8020    7.1110 C.3       6 GLL5        0.0000 
     59 CA         24.8470  -12.8320    3.8750 C.3       4 GLP5        0.0000 
@<TRIPOS>BOND
@<TRIPOS>SUBSTRUCTURE
     1 ALC1       18 GROUP        1 X    ALC  0     ROOT ALC X 1
     2 GLC5        1 GROUP        1 X    GLC  0     **** GLC X 6
     3 ALP1       20 GROUP        1 Y    ALP  0     ROOT ALP Y 8
     4 GLP5        3 GROUP        1 Y    GLP  0     **** GLP Y 13
     5 ALL1       19 GROUP        1 Z    ALL  0     ROOT ALL Z 15
     6 GLL5        2 GROUP        1 Z    GLL  0     **** GLL Z 20
@<TRIPOS>SET

