#    Name: 3zrb_OR8_1_ligand
#    Modification time : Tue Mar 25 03:51:19 2014

@<TRIPOS>MOLECULE
3zrb_OR8_1_ligand
   45    47     1     0     0
SMALL
NO_CHARGES


@<TRIPOS>ATOM
      1 CL         25.0980  -12.7100   11.4620 Cl        1 OR81000     0.0000 
      2 C18        26.8090  -12.7700   11.7750 C.2       1 OR81000     0.0000 
      3 N19        27.6030  -13.8200   11.4750 N.pl3     1 OR81000     0.0000 
      4 C26        27.2230  -15.0960   10.8540 C.3       1 OR81000     0.0000 
      5 N20        28.8840  -13.4940   11.9000 N.2       1 OR81000     0.0000 
      6 C21        28.8770  -12.2770   12.3930 C.2       1 OR81000     0.0000 
      7 C24        30.1090  -11.6080   12.9390 C.3       1 OR81000     0.0000 
      8 C15        27.5620  -11.7930   12.3600 C.2       1 OR81000     0.0000 
      9 S14        27.0040  -10.1760   12.8480 S.o2      1 OR81000     0.0000 
     10 O16        27.5080   -9.8880   14.1340 O.2       1 OR81000     0.0000 
     11 O17        25.6530  -10.1100   12.4150 O.2       1 OR81000     0.0000 
     12 N13        27.7630   -9.2490   11.7020 N.pl3     1 OR81000     0.0000 
     13 C12        27.1770   -9.0430   10.3590 C.3       1 OR81000     0.0000 
     14 C5         27.2320  -10.2920    9.5130 C.ar      1 OR81000     0.0000 
     15 C6         28.4120  -11.0450    9.4380 C.ar      1 OR81000     0.0000 
     16 C1         28.4960  -12.1940    8.6710 C.ar      1 OR81000     0.0000 
     17 C4         26.0990  -10.6940    8.8230 C.ar      1 OR81000     0.0000 
     18 C3         26.1740  -11.8260    8.0330 C.ar      1 OR81000     0.0000 
     19 C2         27.3480  -12.5980    7.9820 C.ar      1 OR81000     0.0000 
     20 C7         27.3310  -13.8020    7.1110 C.2       1 OR81000     0.0000 
     21 C11        26.3180  -14.7150    6.9950 C.2       1 OR81000     0.0000 
     22 C22        25.0340  -14.7460    7.7880 C.3       1 OR81000     0.0000 
     23 O10        26.7060  -15.5320    6.0190 O.3       1 OR81000     0.0000 
     24 N9         27.7960  -15.2260    5.5660 N.2       1 OR81000     0.0000 
     25 C8         28.2940  -14.1790    6.1330 C.2       1 OR81000     0.0000 
     26 C23        29.6110  -13.5190    5.8180 C.3       1 OR81000     0.0000 
     27 H          28.6188   -8.8587   11.9928 H         1 OR81000     0.0000 
     28 H          27.7134   -8.2355    9.8343 H         1 OR81000     0.0000 
     29 H          26.1260   -8.7238   10.4521 H         1 OR81000     0.0000 
     30 H          29.2427  -10.7253    9.9761 H         1 OR81000     0.0000 
     31 H          29.3531  -12.7268    8.6067 H         1 OR81000     0.0000 
     32 H          25.2299  -10.1651    8.8976 H         1 OR81000     0.0000 
     33 H          25.3592  -12.1182    7.4667 H         1 OR81000     0.0000 
     34 H          28.0095  -15.7035   10.7424 H         1 OR81000     0.0000 
     35 H          26.5472  -15.5890   11.4020 H         1 OR81000     0.0000 
     36 H          26.8241  -14.9632    9.9467 H         1 OR81000     0.0000 
     37 H          30.4980  -12.1163   13.7073 H         1 OR81000     0.0000 
     38 H          30.8263  -11.5288   12.2468 H         1 OR81000     0.0000 
     39 H          29.9151  -10.6835   13.2673 H         1 OR81000     0.0000 
     40 H          25.2053  -14.8408    8.7686 H         1 OR81000     0.0000 
     41 H          24.5001  -13.9097    7.6632 H         1 OR81000     0.0000 
     42 H          24.4488  -15.5104    7.5175 H         1 OR81000     0.0000 
     43 H          30.2191  -13.5059    6.6117 H         1 OR81000     0.0000 
     44 H          30.0975  -13.9925    5.0838 H         1 OR81000     0.0000 
     45 H          29.4904  -12.5704    5.5255 H         1 OR81000     0.0000 
@<TRIPOS>BOND
     1    2    1 1    
     2    3    2 1    
     3    8    2 2    
     4    4    3 1    
     5    5    3 1    
     6   34    4 1    
     7   35    4 1    
     8   36    4 1    
     9    6    5 2    
    10    7    6 1    
    11    8    6 1    
    12   37    7 1    
    13   38    7 1    
    14   39    7 1    
    15    9    8 1    
    16   10    9 2    
    17   11    9 2    
    18   12    9 1    
    19   13   12 1    
    20   27   12 1    
    21   14   13 1    
    22   28   13 1    
    23   29   13 1    
    24   15   14 ar   
    25   17   14 ar   
    26   16   15 ar   
    27   30   15 1    
    28   19   16 ar   
    29   31   16 1    
    30   18   17 ar   
    31   32   17 1    
    32   19   18 ar   
    33   33   18 1    
    34   20   19 1    
    35   21   20 2    
    36   25   20 1    
    37   22   21 1    
    38   23   21 1    
    39   40   22 1    
    40   41   22 1    
    41   42   22 1    
    42   24   23 1    
    43   25   24 2    
    44   26   25 1    
    45   43   26 1    
    46   44   26 1    
    47   45   26 1    
@<TRIPOS>SUBSTRUCTURE
     1 OR81000     1 GROUP   
@<TRIPOS>SET

