#    Name: 1nhg_TCL_1_INTS_M
#    Modification time : Mon Mar 24 18:14:53 2014

@<TRIPOS>MOLECULE
1nhg_TCL_1_INTS_M
   60     0     9     0     0
SMALL
NO_CHARGES


@<TRIPOS>ATOM
      1 CA         47.6315   95.5945   32.6515 C.3       3 GLC5        0.0000 
      2 CA         49.2360   95.7350   33.8340 C.3       9 GLL5        0.0000 
      3 CA         46.0270   95.4540   31.4690 C.3       6 GLP5        0.0000 
      4 CA         52.7405   95.2725   36.9060 C.3       3 GLC5        0.0000 
      5 CA         51.2540   94.9660   35.8440 C.3       9 GLL5        0.0000 
      6 CA         54.2270   95.5790   37.9680 C.3       6 GLP5        0.0000 
      7 CA         52.0330   96.3800   37.1705 C.3       3 GLC5        0.0000 
      8 CA         50.9030   96.3660   35.6290 C.3       9 GLL5        0.0000 
      9 CA         53.1630   96.3940   38.7120 C.3       6 GLP5        0.0000 
     10 CA         51.2825   98.0595   36.7520 C.3       3 GLC5        0.0000 
     11 CA         51.6620   99.7530   37.8750 C.3       6 GLP5        0.0000 
     12 CA         53.0200   91.5280   36.3490 C.3       3 GLC5        0.0000 
     13 CA         52.0580   91.9470   34.6130 C.3       9 GLL5        0.0000 
     14 CA         53.9820   91.1090   38.0850 C.3       6 GLP5        0.0000 
     15 CA         55.1470   92.4690   31.5750 C.3       3 GLC5        0.0000 
     16 CA         53.8750   91.7870   32.9620 C.3       9 GLL5        0.0000 
     17 CA         56.4190   93.1510   30.1880 C.3       6 GLP5        0.0000 
     18 CA         53.3960   91.4185   31.0000 C.3       3 GLC5        0.0000 
     19 CA         52.9170   91.0500   29.0380 C.3       6 GLP5        0.0000 
     20 CA         48.5895   98.8875   33.1280 C.3       3 GLC5        0.0000 
     21 CA         49.5510   98.3340   34.4540 C.3       9 GLL5        0.0000 
     22 CA         47.6280   99.4410   31.8020 C.3       6 GLP5        0.0000 
     23 CA         51.1900   98.8285   33.7850 C.3       3 GLC5        0.0000 
     24 CA         52.8290   99.3230   33.1160 C.3       6 GLP5        0.0000 
     25 CA         50.6065   99.0435   36.1645 C.3       3 GLC5        0.0000 
     26 CA         48.0870   97.0480   35.3380 C.3       3 GLC5        0.0000 
     27 CA         46.6230   95.7620   36.2220 C.3       6 GLP5        0.0000 
     28 CA         54.7960   87.9075   32.5520 C.3       3 GLC5        0.0000 
     29 CA         55.4230   89.5830   32.6000 C.3       9 GLL5        0.0000 
     30 CA         54.1690   86.2320   32.5040 C.3       6 GLP5        0.0000 
     31 CA         55.5355   88.9940   30.7800 C.3       3 GLC5        0.0000 
     32 CA         55.6480   88.4050   28.9600 C.3       6 GLP5        0.0000 
     33 CA         56.4140   90.7965   31.2920 C.3       3 GLC5        0.0000 
     34 CA         57.4050   92.0100   29.9840 C.3       6 GLP5        0.0000 
     35 CA         50.8020   88.8160   34.8450 C.3       3 GLC5        0.0000 
     36 CA         51.4760   89.7450   36.2620 C.3       9 GLL5        0.0000 
     37 CA         50.1280   87.8870   33.4280 C.3       6 GLP5        0.0000 
     38 CA         52.7290   90.4270   37.1735 C.3       3 GLC5        0.0000 
     39 CA         49.6230   89.6540   36.1585 C.3       3 GLC5        0.0000 
     40 CA         47.7700   89.5630   36.0550 C.3       6 GLP5        0.0000 
     41 N          48.5125   92.2050   33.7415 N.am      2 SEC2        0.0000 
     42 N          48.9430   93.3860   33.2740 N.am      8 SEL2        0.0000 
     43 N          48.0820   91.0240   34.2090 N.am      5 SEP2        0.0000 
     44 O          49.0400   93.3785   32.0185 O.2       1 ALC1        0.0000 
     45 O          48.9430   93.3860   33.2740 O.2       7 ALL1        0.0000 
     46 O          49.1370   93.3710   30.7630 O.2       4 ALP1        0.0000 
     47 CA         49.0127   92.5547   35.0780 C.3       3 GLC5        0.0000 
     48 CA         49.5870   94.3320   34.0470 C.3       9 GLL5        0.0000 
     49 CA         47.9280   90.9730   35.5990 C.3       6 GLP5        0.0000 
     50 CA         52.6025   95.6399   34.5676 C.3       3 GLC5        0.0000 
     51 CA         54.2880   95.8700   33.5930 C.3       6 GLP5        0.0000 
     52 CA         53.9862   88.1713   33.1827 C.3       3 GLC5        0.0000 
     53 CA         54.1920   90.4650   33.3180 C.3       9 GLL5        0.0000 
     54 CA         51.5055   89.0048   34.0782 C.3       3 GLC5        0.0000 
     55 CA         53.4150   89.7560   34.4050 C.3       9 GLL5        0.0000 
     56 CA         53.4325   90.6158   36.4068 C.3       3 GLC5        0.0000 
     57 CA         52.3510   90.4890   35.0520 C.3       9 GLL5        0.0000 
     58 CA         50.0662   91.0955   35.2157 C.3       3 GLC5        0.0000 
     59 CA         53.8358   94.0147   33.4190 C.3       3 GLC5        0.0000 
     60 CA         52.8920   92.5320   33.5280 C.3       9 GLL5        0.0000 
@<TRIPOS>BOND
@<TRIPOS>SUBSTRUCTURE
     1 ALC1       44 GROUP        1 X    ALC  0     ROOT ALC X 1
     2 SEC2       41 GROUP        1 X    SEC  0     **** SEC X 2
     3 GLC5        1 GROUP        1 X    GLC  0     **** GLC X 6
     4 ALP1       46 GROUP        1 Y    ALP  0     ROOT ALP Y 8
     5 SEP2       43 GROUP        1 Y    SEP  0     **** SEP Y 9
     6 GLP5        3 GROUP        1 Y    GLP  0     **** GLP Y 13
     7 ALL1       45 GROUP        1 Z    ALL  0     ROOT ALL Z 15
     8 SEL2       42 GROUP        1 Z    SEL  0     **** SEL Z 16
     9 GLL5        2 GROUP        1 Z    GLL  0     **** GLL Z 20
@<TRIPOS>SET

