#    Name: 1nhg_TCL_1_ligand
#    Modification time : Mon Mar 24 18:14:53 2014

@<TRIPOS>MOLECULE
1nhg_TCL_1_ligand
   24    25     1     0     0
SMALL
NO_CHARGES


@<TRIPOS>ATOM
      1 C1         49.2360   95.7350   33.8340 C.ar      1 TCL500      0.0000 
      2 C2         49.9030   96.7370   34.6340 C.ar      1 TCL500      0.0000 
      3 C6         49.5870   94.3320   34.0470 C.ar      1 TCL500      0.0000 
      4 C5         50.6080   93.9410   35.0670 C.ar      1 TCL500      0.0000 
      5 C4         51.2540   94.9660   35.8440 C.ar      1 TCL500      0.0000 
      6 C3         50.9030   96.3660   35.6290 C.ar      1 TCL500      0.0000 
      7 C11        54.1920   90.4650   33.3180 C.ar      1 TCL500      0.0000 
      8 C10        53.4150   89.7560   34.4050 C.ar      1 TCL500      0.0000 
      9 C9         52.3510   90.4890   35.0520 C.ar      1 TCL500      0.0000 
     10 C8         52.0580   91.9470   34.6130 C.ar      1 TCL500      0.0000 
     11 C12        53.8750   91.7870   32.9620 C.ar      1 TCL500      0.0000 
     12 C13        52.8920   92.5320   33.5280 C.ar      1 TCL500      0.0000 
     13 O7         50.9930   92.6050   35.3200 O.3       1 TCL500      0.0000 
     14 CL14       49.5510   98.3340   34.4540 Cl        1 TCL500      0.0000 
     15 CL15       55.4230   89.5830   32.6000 Cl        1 TCL500      0.0000 
     16 CL16       51.4760   89.7450   36.2620 Cl        1 TCL500      0.0000 
     17 O17        48.9430   93.3860   33.2740 O.3       1 TCL500      0.0000 
     18 H          48.5546   95.9859   33.1540 H         1 TCL500      0.0000 
     19 H          51.9461   94.7272   36.5349 H         1 TCL500      0.0000 
     20 H          51.3570   97.0848   36.1745 H         1 TCL500      0.0000 
     21 H          53.6488   88.8325   34.6394 H         1 TCL500      0.0000 
     22 H          54.4634   92.2214   32.1849 H         1 TCL500      0.0000 
     23 H          52.6806   93.4879   33.2543 H         1 TCL500      0.0000 
     24 H          48.8723   93.7986   32.3658 H         1 TCL500      0.0000 
@<TRIPOS>BOND
     1    2    1 ar   
     2    3    1 ar   
     3   18    1 1    
     4    6    2 ar   
     5   14    2 1    
     6    4    3 ar   
     7   17    3 1    
     8    5    4 ar   
     9   13    4 1    
    10    6    5 ar   
    11   19    5 1    
    12   20    6 1    
    13    8    7 ar   
    14   11    7 ar   
    15   15    7 1    
    16    9    8 ar   
    17   21    8 1    
    18   10    9 ar   
    19   16    9 1    
    20   12   10 ar   
    21   13   10 1    
    22   12   11 ar   
    23   22   11 1    
    24   23   12 1    
    25   24   17 1    
@<TRIPOS>SUBSTRUCTURE
     1 TCL500      1 GROUP   
@<TRIPOS>SET

