#    Name: 3u9z_ADP_1_INTS_M
#    Modification time : Mon Mar 24 22:03:43 2014

@<TRIPOS>MOLECULE
3u9z_ADP_1_INTS_M
   72     0    15     0     0
SMALL
NO_CHARGES


@<TRIPOS>ATOM
      1 N           8.5810    3.2325   14.8920 N.am      2 SEC2        0.0000 
      2 N           8.8780    4.4830   16.0390 N.am     12 SEL2        0.0000 
      3 N           8.2840    1.9820   13.7450 N.am      7 SEP2        0.0000 
      4 N           7.6850    4.0810   15.6830 N.am      2 SEC2        0.0000 
      5 N           6.4920    3.6790   15.3270 N.am      7 SEP2        0.0000 
      6 N           8.2480    5.6625   16.4940 N.am      2 SEC2        0.0000 
      7 N           7.6180    6.8420   16.9490 N.am      7 SEP2        0.0000 
      8 NZ         11.6790    4.6685   13.8775 N.4       3 LYC4        0.0000 
      9 NZ         10.0530    4.8090   13.8670 N.4      13 LYL4        0.0000 
     10 NZ         13.3050    4.5280   13.8880 N.4       8 LYP4        0.0000 
     11 N           8.8610    4.5160   13.1425 N.am      2 SEC2        0.0000 
     12 N          10.0530    4.8090   13.8670 N.am     12 SEL2        0.0000 
     13 N           7.6690    4.2230   12.4180 N.am      7 SEP2        0.0000 
     14 N          10.0445    4.9820   12.4970 N.am      2 SEC2        0.0000 
     15 N          10.0360    5.1550   11.1270 N.am      7 SEP2        0.0000 
     16 NZ         12.3380    4.2150   14.8415 N.4       3 LYC4        0.0000 
     17 NZ         11.3710    3.9020   15.7950 N.4      13 LYL4        0.0000 
     18 Zn         11.6485    3.3145   16.6035 Zn        4 ZIC7        0.0000 
     19 Zn         11.3710    3.9020   15.7950 Zn       14 ZIL7        0.0000 
     20 Zn         11.9260    2.7270   17.4120 Zn        9 ZIP7        0.0000 
     21 N          12.3380    4.2150   14.8415 N.am      2 SEC2        0.0000 
     22 N          11.3710    3.9020   15.7950 N.am     12 SEL2        0.0000 
     23 N          13.3050    4.5280   13.8880 N.am      7 SEP2        0.0000 
     24 N          12.7585    7.8020   18.3185 N.am      2 SEC2        0.0000 
     25 N          12.4800    6.6660   17.4900 N.am     12 SEL2        0.0000 
     26 N          13.0370    8.9380   19.1470 N.am      7 SEP2        0.0000 
     27 NZ         12.9775    5.6940   14.3850 N.4       3 LYC4        0.0000 
     28 NZ         12.6500    6.8600   14.8820 N.4      13 LYL4        0.0000 
     29 N          12.9775    5.6940   14.3850 N.am      2 SEC2        0.0000 
     30 N          12.6500    6.8600   14.8820 N.am     12 SEL2        0.0000 
     31 N          12.2265    8.7485   17.7125 N.am      2 SEC2        0.0000 
     32 N          11.4160    8.5590   16.2780 N.am     12 SEL2        0.0000 
     33 CA         11.4880    8.9150   13.4480 C.3       5 GLC5        0.0000 
     34 CA         10.5990    9.1280   15.2150 C.3      15 GLL5        0.0000 
     35 CA         12.3770    8.7020   11.6810 C.3      10 GLP5        0.0000 
     36 CA          8.8655    8.2130   14.8940 C.3       5 GLC5        0.0000 
     37 CA          7.1320    7.2980   14.5730 C.3      10 GLP5        0.0000 
     38 CA          8.2270    8.8605   15.9465 C.3       5 GLC5        0.0000 
     39 CA          9.7320   10.1780   15.8680 C.3      15 GLL5        0.0000 
     40 CA          6.7220    7.5430   16.0250 C.3      10 GLP5        0.0000 
     41 CA          8.1385    9.2225   14.6975 C.3       5 GLC5        0.0000 
     42 CA          9.1450   11.1470   14.8220 C.3      15 GLL5        0.0000 
     43 N           7.3340   12.9855   15.7205 N.am      2 SEC2        0.0000 
     44 N           7.8030   11.4240   15.2110 N.am     12 SEL2        0.0000 
     45 N           6.8650   14.5470   16.2300 N.am      7 SEP2        0.0000 
     46 O           7.1270   10.4375   14.5105 O.2       1 ALC1        0.0000 
     47 O           7.8030   11.4240   15.2110 O.2      11 ALL1        0.0000 
     48 O           6.4510    9.4510   13.8100 O.2       6 ALP1        0.0000 
     49 N           8.0210   14.0460   15.5190 N.am      2 SEC2        0.0000 
     50 N           9.1770   13.5450   14.8080 N.am     12 SEL2        0.0000 
     51 O          10.1625   14.4030   14.2730 O.2       1 ALC1        0.0000 
     52 O           9.1770   13.5450   14.8080 O.2      11 ALL1        0.0000 
     53 O          11.1480   15.2610   13.7380 O.2       6 ALP1        0.0000 
     54 CA         11.6775   11.3335   17.5915 C.3       5 GLC5        0.0000 
     55 CA         10.3750   12.3450   16.4530 C.3      15 GLL5        0.0000 
     56 CA         12.9800   10.3220   18.7300 C.3      10 GLP5        0.0000 
     57 CA         10.2175   11.8980   18.6495 C.3       5 GLC5        0.0000 
     58 CA         10.0600   11.4510   20.8460 C.3      10 GLP5        0.0000 
     59 N          14.8600   13.9655   15.6025 N.am      2 SEC2        0.0000 
     60 N          13.5920   14.1020   16.5090 N.am     12 SEL2        0.0000 
     61 N          16.1280   13.8290   14.6960 N.am      7 SEP2        0.0000 
     62 CA         11.0665   16.5085   17.2085 C.3       5 GLC5        0.0000 
     63 CA         11.0510   15.8910   19.1480 C.3      15 GLL5        0.0000 
     64 CA         11.0820   17.1260   15.2690 C.3      10 GLP5        0.0000 
     65 CA         12.8600   15.1405   19.9840 C.3       5 GLC5        0.0000 
     66 CA         14.6690   14.3900   20.8200 C.3      10 GLP5        0.0000 
     67 CA         12.2910   12.2910   18.1315 C.3       5 GLC5        0.0000 
     68 CA         11.6020   14.2600   17.5330 C.3      15 GLL5        0.0000 
     69 CA         11.5727    9.9875   17.1358 C.3       5 GLC5        0.0000 
     70 CA         11.7085   15.9886   16.4704 C.3       5 GLC5        0.0000 
     71 CA         12.9260   14.8500   17.3980 C.3      15 GLL5        0.0000 
     72 CA         13.5020   14.6206   19.2459 C.3       5 GLC5        0.0000 
@<TRIPOS>BOND
@<TRIPOS>SUBSTRUCTURE
     1 ALC1       46 GROUP        1 X    ALC  0     ROOT ALC X 1
     2 SEC2        1 GROUP        1 X    SEC  0     **** SEC X 2
     3 LYC4        8 GROUP        1 X    LYC  0     **** LYC X 4
     4 ZIC7       18 GROUP        1 X    ZIC  0     **** ZIC X 5
     5 GLC5       33 GROUP        1 X    GLC  0     **** GLC X 6
     6 ALP1       48 GROUP        1 Y    ALP  0     ROOT ALP Y 8
     7 SEP2        3 GROUP        1 Y    SEP  0     **** SEP Y 9
     8 LYP4       10 GROUP        1 Y    LYP  0     **** LYP Y 11
     9 ZIP7       20 GROUP        1 Y    ZIP  0     **** ZIP Y 12
    10 GLP5       35 GROUP        1 Y    GLP  0     **** GLP Y 13
    11 ALL1       47 GROUP        1 Z    ALL  0     ROOT ALL Z 15
    12 SEL2        2 GROUP        1 Z    SEL  0     **** SEL Z 16
    13 LYL4        9 GROUP        1 Z    LYL  0     **** LYL Z 18
    14 ZIL7       19 GROUP        1 Z    ZIL  0     **** ZIL Z 19
    15 GLL5       34 GROUP        1 Z    GLL  0     **** GLL Z 20
@<TRIPOS>SET

