#    Name: 3u9z_ADP_1_ligand
#    Modification time : Mon Mar 24 22:03:44 2014

@<TRIPOS>MOLECULE
3u9z_ADP_1_ligand
   39    41     1     0     0
SMALL
NO_CHARGES


@<TRIPOS>ATOM
      1 PB         10.2190    4.7460   15.3480 P.3       1 ADP376      0.0000 
      2 O1B         8.8780    4.4830   16.0390 O.co2     1 ADP376      0.0000 
      3 O2B        10.0530    4.8090   13.8670 O.co2     1 ADP376      0.0000 
      4 O3B        11.3710    3.9020   15.7950 O.co2     1 ADP376      0.0000 
      5 PA         11.8640    7.0290   16.1610 P.3       1 ADP376      0.0000 
      6 O1A        12.4800    6.6660   17.4900 O.co2     1 ADP376      0.0000 
      7 O2A        12.6500    6.8600   14.8820 O.co2     1 ADP376      0.0000 
      8 O3A        10.5020    6.2790   15.8020 O.3       1 ADP376      0.0000 
      9 O5'        11.4160    8.5590   16.2780 O.3       1 ADP376      0.0000 
     10 C5'        10.5990    9.1280   15.2150 C.3       1 ADP376      0.0000 
     11 C4'         9.7320   10.1780   15.8680 C.3       1 ADP376      0.0000 
     12 O4'        10.6270   10.9560   16.6590 O.3       1 ADP376      0.0000 
     13 C3'         9.1450   11.1470   14.8220 C.3       1 ADP376      0.0000 
     14 O3'         7.8030   11.4240   15.2110 O.3       1 ADP376      0.0000 
     15 C2'         9.9570   12.3880   14.9950 C.3       1 ADP376      0.0000 
     16 O2'         9.1770   13.5450   14.8080 O.3       1 ADP376      0.0000 
     17 C1'        10.3750   12.3450   16.4530 C.3       1 ADP376      0.0000 
     18 N9         11.5550   13.2290   16.6880 N.pl3     1 ADP376      0.0000 
     19 C8         12.7380   13.1620   16.0450 C.2       1 ADP376      0.0000 
     20 N7         13.5920   14.1020   16.5090 N.2       1 ADP376      0.0000 
     21 C5         12.9260   14.8500   17.3980 C.ar      1 ADP376      0.0000 
     22 C6         13.2100   16.0350   18.2230 C.ar      1 ADP376      0.0000 
     23 N6         14.4140   16.6180   18.2140 N.pl3     1 ADP376      0.0000 
     24 N1         12.2620   16.4690   19.0860 N.ar      1 ADP376      0.0000 
     25 C2         11.0510   15.8910   19.1480 C.ar      1 ADP376      0.0000 
     26 N3         10.7170   14.8290   18.4050 N.ar      1 ADP376      0.0000 
     27 C4         11.6020   14.2600   17.5330 C.ar      1 ADP376      0.0000 
     28 H           9.9646    8.3779   14.7668 H         1 ADP376      0.0000 
     29 H          11.2124    9.5984   14.4610 H         1 ADP376      0.0000 
     30 H           8.9741    9.7468   16.4281 H         1 ADP376      0.0000 
     31 H           9.2570   10.7490   13.8838 H         1 ADP376      0.0000 
     32 H          10.8197   12.3435   14.4005 H         1 ADP376      0.0000 
     33 H           9.5306   12.6698   17.0311 H         1 ADP376      0.0000 
     34 H          12.9525   12.5189   15.3359 H         1 ADP376      0.0000 
     35 H          14.5339   17.3897   18.8385 H         1 ADP376      0.0000 
     36 H          15.0862   16.2298   17.5835 H         1 ADP376      0.0000 
     37 H          10.3290   16.2956   19.8158 H         1 ADP376      0.0000 
     38 H           7.2487   10.7449   14.7297 H         1 ADP376      0.0000 
     39 H           9.7946   14.2077   14.3845 H         1 ADP376      0.0000 
@<TRIPOS>BOND
     1    2    1 ar   
     2    3    1 ar   
     3    4    1 ar   
     4    8    1 1    
     5    6    5 ar   
     6    7    5 ar   
     7    8    5 1    
     8    9    5 1    
     9   10    9 1    
    10   11   10 1    
    11   28   10 1    
    12   29   10 1    
    13   12   11 1    
    14   13   11 1    
    15   30   11 1    
    16   17   12 1    
    17   14   13 1    
    18   15   13 1    
    19   31   13 1    
    20   38   14 1    
    21   16   15 1    
    22   17   15 1    
    23   32   15 1    
    24   39   16 1    
    25   18   17 1    
    26   33   17 1    
    27   19   18 1    
    28   27   18 1    
    29   20   19 2    
    30   34   19 1    
    31   21   20 1    
    32   22   21 ar   
    33   27   21 ar   
    34   23   22 1    
    35   24   22 ar   
    36   35   23 1    
    37   36   23 1    
    38   25   24 ar   
    39   26   25 ar   
    40   37   25 1    
    41   27   26 ar   
@<TRIPOS>SUBSTRUCTURE
     1 ADP376      1 GROUP   
@<TRIPOS>SET

