#    Name: 4b84_Z5K_2_INTS_M
#    Modification time : Tue Mar 25 07:05:22 2014

@<TRIPOS>MOLECULE
4b84_Z5K_2_INTS_M
   46     0     3     0     0
SMALL
NO_CHARGES


@<TRIPOS>ATOM
      1 CA          3.7595   -2.9735  -38.9270 C.3       1 GLC5        0.0000 
      2 CA          5.7980   -2.7280  -38.7890 C.3       3 GLL5        0.0000 
      3 CA          1.7210   -3.2190  -39.0650 C.3       2 GLP5        0.0000 
      4 CA          2.8565   -2.7685  -37.2795 C.3       1 GLC5        0.0000 
      5 CA          4.5050   -2.4880  -36.8000 C.3       3 GLL5        0.0000 
      6 CA          1.2080   -3.0490  -37.7590 C.3       2 GLP5        0.0000 
      7 CA          4.3680   -4.2360  -35.6185 C.3       1 GLC5        0.0000 
      8 CA          4.2310   -5.9840  -34.4370 C.3       2 GLP5        0.0000 
      9 CA          2.5530   -1.8705  -36.3510 C.3       1 GLC5        0.0000 
     10 CA          4.3540   -1.9350  -35.4190 C.3       3 GLL5        0.0000 
     11 CA          0.7520   -1.8060  -37.2830 C.3       2 GLP5        0.0000 
     12 CA          3.8355   -3.5870  -34.5665 C.3       1 GLC5        0.0000 
     13 CA          3.3170   -5.2390  -33.7140 C.3       2 GLP5        0.0000 
     14 CA          5.8405   -0.7680  -34.7820 C.3       1 GLC5        0.0000 
     15 CA          7.3270    0.3990  -34.1450 C.3       2 GLP5        0.0000 
     16 CA          3.3420   -0.1940  -35.0940 C.3       1 GLC5        0.0000 
     17 CA          2.3300    1.5470  -34.7690 C.3       2 GLP5        0.0000 
     18 CA          2.3650   -2.1900  -34.4125 C.3       1 GLC5        0.0000 
     19 CA          0.3760   -2.4450  -33.4060 C.3       2 GLP5        0.0000 
     20 CA          6.3555    0.9555  -40.7595 C.3       1 GLC5        0.0000 
     21 CA          4.9970   -0.1380  -39.5460 C.3       3 GLL5        0.0000 
     22 CA          7.7140    2.0490  -41.9730 C.3       2 GLP5        0.0000 
     23 CA         10.0120   -9.9655  -35.3545 C.3       1 GLC5        0.0000 
     24 CA         11.0720   -8.9500  -36.7080 C.3       3 GLL5        0.0000 
     25 CA          8.9520  -10.9810  -34.0010 C.3       2 GLP5        0.0000 
     26 CA         11.4215   -9.1990  -33.6130 C.3       1 GLC5        0.0000 
     27 CA         12.4440   -8.2490  -35.1480 C.3       3 GLL5        0.0000 
     28 CA         10.3990  -10.1490  -32.0780 C.3       2 GLP5        0.0000 
     29 CA         11.7230   -6.6870  -38.7490 C.3       1 GLC5        0.0000 
     30 CA         12.5040   -7.3380  -37.0820 C.3       3 GLL5        0.0000 
     31 CA         10.9420   -6.0360  -40.4160 C.3       2 GLP5        0.0000 
     32 CA         13.1070   -5.4710  -37.1400 C.3       1 GLC5        0.0000 
     33 CA         13.7100   -3.6040  -37.1980 C.3       2 GLP5        0.0000 
     34 CA         10.2160   -8.5995  -33.2735 C.3       1 GLC5        0.0000 
     35 CA         10.0330   -7.0500  -34.4690 C.3       3 GLL5        0.0000 
     36 CA          9.2620   -5.9930  -32.0130 C.3       1 GLC5        0.0000 
     37 CA          9.0720   -6.1430  -34.0140 C.3       3 GLL5        0.0000 
     38 CA          9.4520   -5.8430  -30.0120 C.3       2 GLP5        0.0000 
     39 CA          7.5348   -2.4190  -40.0093 C.3       1 GLC5        0.0000 
     40 CA          6.6050   -3.9260  -38.3900 C.3       3 GLL5        0.0000 
     41 CA          8.8680   -1.5110  -41.4290 C.3       2 GLP5        0.0000 
     42 CA          3.1625   -0.5875  -39.1280 C.3       1 GLC5        0.0000 
     43 CA          1.3070   -0.8660  -39.4460 C.3       2 GLP5        0.0000 
     44 CA         13.3750   -7.7348  -37.9930 C.3       1 GLC5        0.0000 
     45 CA         11.6880   -7.8730  -36.1820 C.3       3 GLL5        0.0000 
     46 CA         14.6540   -7.8640  -39.3540 C.3       2 GLP5        0.0000 
@<TRIPOS>BOND
@<TRIPOS>SUBSTRUCTURE
     1 GLC5        1 GROUP        1 X    GLC  0     ROOT GLC X 6
     2 GLP5        3 GROUP        1 Y    GLP  0     ROOT GLP Y 13
     3 GLL5        2 GROUP        1 Z    GLL  0     ROOT GLL Z 20
@<TRIPOS>SET

