#    Name: 4b84_Z5K_2_ligand
#    Modification time : Tue Mar 25 07:05:22 2014

@<TRIPOS>MOLECULE
4b84_Z5K_2_ligand
   41    41     1     0     0
SMALL
NO_CHARGES


@<TRIPOS>ATOM
      1 O01         9.3920   -3.3490  -38.3000 O.2       1 Z5K1543     0.0000 
      2 S02         8.7910   -3.4350  -37.0080 S.o2      1 Z5K1543     0.0000 
      3 N03         7.1380   -3.7710  -37.0560 N.pl3     1 Z5K1543     0.0000 
      4 C04         6.6050   -3.9260  -38.3900 C.3       1 Z5K1543     0.0000 
      5 C05         5.7980   -2.7280  -38.7890 C.3       1 Z5K1543     0.0000 
      6 N06         5.4680   -1.8290  -37.6710 N.4       1 Z5K1543     0.0000 
      7 C07         4.5050   -2.4880  -36.8000 C.3       1 Z5K1543     0.0000 
      8 C08         4.3540   -1.9350  -35.4190 C.3       1 Z5K1543     0.0000 
      9 C09         5.0390   -0.4800  -38.0740 C.3       1 Z5K1543     0.0000 
     10 C10         4.9970   -0.1380  -39.5460 C.3       1 Z5K1543     0.0000 
     11 C11         9.3250   -4.8220  -36.0550 C.ar      1 Z5K1543     0.0000 
     12 C12        10.2720   -5.7540  -36.5160 C.ar      1 Z5K1543     0.0000 
     13 C13        10.6440   -6.8610  -35.7270 C.ar      1 Z5K1543     0.0000 
     14 C14        11.6880   -7.8730  -36.1820 C.3       1 Z5K1543     0.0000 
     15 F15        11.0720   -8.9500  -36.7080 F         1 Z5K1543     0.0000 
     16 F16        12.4440   -8.2490  -35.1480 F         1 Z5K1543     0.0000 
     17 F17        12.5040   -7.3380  -37.0820 F         1 Z5K1543     0.0000 
     18 C18        10.0330   -7.0500  -34.4690 C.ar      1 Z5K1543     0.0000 
     19 C19         9.0720   -6.1430  -34.0140 C.ar      1 Z5K1543     0.0000 
     20 C20         8.7120   -5.0410  -34.8050 C.ar      1 Z5K1543     0.0000 
     21 O21         9.0730   -2.1030  -36.5170 O.2       1 Z5K1543     0.0000 
     22 H           6.7114   -3.8281  -36.2310 H         1 Z5K1543     0.0000 
     23 H           5.9624   -4.8194  -38.4525 H         1 Z5K1543     0.0000 
     24 H           7.4178   -4.0620  -39.1220 H         1 Z5K1543     0.0000 
     25 H           4.8628   -3.0758  -39.2796 H         1 Z5K1543     0.0000 
     26 H           6.3559   -2.1667  -39.5699 H         1 Z5K1543     0.0000 
     27 H           6.4165   -1.7128  -37.0655 H         1 Z5K1543     0.0000 
     28 H           4.7600   -3.5821  -36.7131 H         1 Z5K1543     0.0000 
     29 H           3.4903   -2.4887  -37.2897 H         1 Z5K1543     0.0000 
     30 H           5.6931    0.2885  -37.5606 H         1 Z5K1543     0.0000 
     31 H           4.0135   -0.2701  -37.6425 H         1 Z5K1543     0.0000 
     32 H          10.7006   -5.6269  -37.4433 H         1 Z5K1543     0.0000 
     33 H          10.2982   -7.8545  -33.8934 H         1 Z5K1543     0.0000 
     34 H           8.6270   -6.2808  -33.0997 H         1 Z5K1543     0.0000 
     35 H           7.9941   -4.3854  -34.4715 H         1 Z5K1543     0.0000 
     36 H           5.2136   -1.9693  -34.9091 H         1 Z5K1543     0.0000 
     37 H           4.0587   -0.9797  -35.4317 H         1 Z5K1543     0.0000 
     38 H           3.6772   -2.4439  -34.8871 H         1 Z5K1543     0.0000 
     39 H           5.8964   -0.2272  -39.9738 H         1 Z5K1543     0.0000 
     40 H           4.3727   -0.7361  -40.0486 H         1 Z5K1543     0.0000 
     41 H           4.6909    0.8014  -39.7004 H         1 Z5K1543     0.0000 
@<TRIPOS>BOND
     1    2    1 2    
     2    3    2 1    
     3   11    2 1    
     4   21    2 2    
     5    4    3 1    
     6   22    3 1    
     7    5    4 1    
     8   23    4 1    
     9   24    4 1    
    10    6    5 1    
    11   25    5 1    
    12   26    5 1    
    13    7    6 1    
    14    9    6 1    
    15   27    6 1    
    16    8    7 1    
    17   28    7 1    
    18   29    7 1    
    19   36    8 1    
    20   37    8 1    
    21   38    8 1    
    22   10    9 1    
    23   30    9 1    
    24   31    9 1    
    25   39   10 1    
    26   40   10 1    
    27   41   10 1    
    28   12   11 ar   
    29   20   11 ar   
    30   13   12 ar   
    31   32   12 1    
    32   14   13 1    
    33   18   13 ar   
    34   15   14 1    
    35   16   14 1    
    36   17   14 1    
    37   19   18 ar   
    38   33   18 1    
    39   20   19 ar   
    40   34   19 1    
    41   35   20 1    
@<TRIPOS>SUBSTRUCTURE
     1 Z5K1543     1 GROUP   
@<TRIPOS>SET

