#    Name: 3srv_S19_1_INTS_M
#    Modification time : Mon Mar 24 18:08:36 2014

@<TRIPOS>MOLECULE
3srv_S19_1_INTS_M
   68     0    12     0     0
SMALL
NO_CHARGES


@<TRIPOS>ATOM
      1 CA         -1.2840   -2.2460  -29.6015 C.3       4 GLC5        0.0000 
      2 CA         -1.4430   -0.5240  -28.3420 C.3      12 GLL5        0.0000 
      3 CA         -1.1250   -3.9680  -30.8610 C.3       8 GLP5        0.0000 
      4 CA         -1.3725   -3.8980  -27.8820 C.3       4 GLC5        0.0000 
      5 CA         -1.6980   -2.1410  -26.7120 C.3      12 GLL5        0.0000 
      6 CA         -1.0470   -5.6550  -29.0520 C.3       8 GLP5        0.0000 
      7 CA         -1.9760   -0.1160  -26.4630 C.3       4 GLC5        0.0000 
      8 CA         -2.2540    1.9090  -26.2140 C.3       8 GLP5        0.0000 
      9 O          -1.8365   -3.5825  -24.7580 O.2       1 ALC1        0.0000 
     10 O          -1.0960   -3.1310  -26.0010 O.2       9 ALL1        0.0000 
     11 O          -2.5770   -4.0340  -23.5150 O.2       5 ALP1        0.0000 
     12 CA          2.9685   -5.5935  -27.6610 C.3       4 GLC5        0.0000 
     13 CA          2.0160   -5.1280  -25.7400 C.3      12 GLL5        0.0000 
     14 CA          3.9210   -6.0590  -29.5820 C.3       8 GLP5        0.0000 
     15 OD1        -1.0020   -3.2990  -23.6155 O.co2     3 ASC3        0.0000 
     16 OD1         0.5730   -2.5640  -23.7160 O.co2    11 ASL3        0.0000 
     17 OD1        -2.5770   -4.0340  -23.5150 O.co2     7 ASP3        0.0000 
     18 OD1        -0.6800   -2.3010  -23.2905 O.co2     3 ASC3        0.0000 
     19 OD1        -1.9330   -2.0380  -22.8650 O.co2     7 ASP3        0.0000 
     20 O           1.3225   -1.5075  -22.9830 O.2       1 ALC1        0.0000 
     21 O           0.5730   -2.5640  -23.7160 O.2       9 ALL1        0.0000 
     22 O           2.0720   -0.4510  -22.2500 O.2       5 ALP1        0.0000 
     23 O          -1.0020   -3.2990  -23.6155 O.2       1 ALC1        0.0000 
     24 O          -0.6800   -2.3010  -23.2905 O.2       1 ALC1        0.0000 
     25 O          -1.9330   -2.0380  -22.8650 O.2       5 ALP1        0.0000 
     26 CA         -3.9315   -0.1200  -25.3885 C.3       4 GLC5        0.0000 
     27 CA         -3.5100   -0.8760  -27.2630 C.3      12 GLL5        0.0000 
     28 CA         -4.3530    0.6360  -23.5140 C.3       8 GLP5        0.0000 
     29 O          -5.4815    2.1255  -29.7455 O.2       1 ALC1        0.0000 
     30 O          -4.7600    1.0480  -28.9520 O.2       9 ALL1        0.0000 
     31 O          -6.2030    3.2030  -30.5390 O.2       5 ALP1        0.0000 
     32 N          -2.7725    3.0620  -30.2770 N.am      2 SEC2        0.0000 
     33 N          -2.6970    1.6670  -29.6880 N.am     10 SEL2        0.0000 
     34 N          -2.8480    4.4570  -30.8660 N.am      6 SEP2        0.0000 
     35 CA          3.4170   -1.3578  -31.5323 C.3       4 GLC5        0.0000 
     36 CA          3.3970    0.1540  -30.2790 C.3      12 GLL5        0.0000 
     37 CA          2.7140   -2.8960  -32.5810 C.3       8 GLP5        0.0000 
     38 CA          3.0180    2.1570  -29.4537 C.3       4 GLC5        0.0000 
     39 CA          3.0720    3.6930  -28.3710 C.3       8 GLP5        0.0000 
     40 CA          1.1475    1.8705  -32.3525 C.3       4 GLC5        0.0000 
     41 CA          1.2010    1.0520  -30.4280 C.3      12 GLL5        0.0000 
     42 CA          0.4290    2.6710  -34.0940 C.3       8 GLP5        0.0000 
     43 CA          2.0095    2.1350  -29.1840 C.3       4 GLC5        0.0000 
     44 CA          1.1387   -0.4395  -31.9008 C.3       4 GLC5        0.0000 
     45 CA          0.6930    0.1020  -29.5660 C.3      12 GLL5        0.0000 
     46 CA          0.9980   -1.4650  -33.7130 C.3       8 GLP5        0.0000 
     47 CA          2.5747    0.5025  -28.1090 C.3       4 GLC5        0.0000 
     48 CA          4.0180    1.3730  -26.9050 C.3       8 GLP5        0.0000 
     49 CA         -2.9840   -0.4185  -30.0607 C.3       4 GLC5        0.0000 
     50 CA         -3.8400   -0.4960  -31.8450 C.3       8 GLP5        0.0000 
     51 CA         -0.3102   -4.9087  -27.4410 C.3       4 GLC5        0.0000 
     52 CA          0.3150   -3.4290  -25.9960 C.3      12 GLL5        0.0000 
     53 CA          0.4050   -6.7650  -26.0700 C.3       4 GLC5        0.0000 
     54 CA          0.5380   -4.8960  -25.6640 C.3      12 GLL5        0.0000 
     55 CA         -0.4670   -8.5180  -26.4380 C.3       8 GLP5        0.0000 
     56 CA          2.8720   -1.1963  -25.4160 C.3       4 GLC5        0.0000 
     57 CA          1.1170   -2.5310  -25.0570 C.3      12 GLL5        0.0000 
     58 CA          3.9010    0.3610  -25.8170 C.3       8 GLP5        0.0000 
     59 CA         -4.6258   -1.7420  -28.1425 C.3       4 GLC5        0.0000 
     60 CA         -2.8130   -0.1580  -28.2110 C.3      12 GLL5        0.0000 
     61 CA         -6.0900   -2.9670  -28.5480 C.3       8 GLP5        0.0000 
     62 CA         -2.5365    0.6502  -26.9919 C.3       4 GLC5        0.0000 
     63 CA          2.4787   -1.8585  -30.9088 C.3       4 GLC5        0.0000 
     64 CA          1.5700   -0.8380  -29.0600 C.3      12 GLL5        0.0000 
     65 CA          0.7198    1.0647  -27.9627 C.3       4 GLC5        0.0000 
     66 CA          0.1810    2.2600  -26.3970 C.3       8 GLP5        0.0000 
     67 CA          3.5696    0.6441  -28.4654 C.3       4 GLC5        0.0000 
     68 CA          2.9170   -0.8040  -29.4130 C.3      12 GLL5        0.0000 
@<TRIPOS>BOND
@<TRIPOS>SUBSTRUCTURE
     1 ALC1        9 GROUP        1 X    ALC  0     ROOT ALC X 1
     2 SEC2       32 GROUP        1 X    SEC  0     **** SEC X 2
     3 ASC3       15 GROUP        1 X    ASC  0     **** ASC X 3
     4 GLC5        1 GROUP        1 X    GLC  0     **** GLC X 6
     5 ALP1       11 GROUP        1 Y    ALP  0     ROOT ALP Y 8
     6 SEP2       34 GROUP        1 Y    SEP  0     **** SEP Y 9
     7 ASP3       17 GROUP        1 Y    ASP  0     **** ASP Y 10
     8 GLP5        3 GROUP        1 Y    GLP  0     **** GLP Y 13
     9 ALL1       10 GROUP        1 Z    ALL  0     ROOT ALL Z 15
    10 SEL2       33 GROUP        1 Z    SEL  0     **** SEL Z 16
    11 ASL3       16 GROUP        1 Z    ASL  0     **** ASL Z 17
    12 GLL5        2 GROUP        1 Z    GLL  0     **** GLL Z 20
@<TRIPOS>SET

