#    Name: 3srv_S19_1_ligand
#    Modification time : Mon Mar 24 18:08:36 2014

@<TRIPOS>MOLECULE
3srv_S19_1_ligand
   48    50     1     0     0
SMALL
NO_CHARGES


@<TRIPOS>ATOM
      1 C1          4.8430    0.2070  -30.6880 C.3       1 S191        0.0000 
      2 C2          3.3970    0.1540  -30.2790 C.ar      1 S191        0.0000 
      3 C3          2.5310    1.0880  -30.7940 C.ar      1 S191        0.0000 
      4 C4          1.2010    1.0520  -30.4280 C.ar      1 S191        0.0000 
      5 C5          0.6930    0.1020  -29.5660 C.ar      1 S191        0.0000 
      6 N6         -0.6960    0.1850  -29.2900 N.pl3     1 S191        0.0000 
      7 C7         -1.4430   -0.5240  -28.3420 C.ar      1 S191        0.0000 
      8 N8         -0.9250   -1.5090  -27.5990 N.ar      1 S191        0.0000 
      9 C9         -1.6980   -2.1410  -26.7120 C.ar      1 S191        0.0000 
     10 N10        -1.0960   -3.1310  -26.0010 N.pl3     1 S191        0.0000 
     11 C11         0.3150   -3.4290  -25.9960 C.3       1 S191        0.0000 
     12 C12         0.5380   -4.8960  -25.6640 C.3       1 S191        0.0000 
     13 C13         2.0160   -5.1280  -25.7400 C.3       1 S191        0.0000 
     14 O14         2.6610   -4.3960  -24.7270 O.3       1 S191        0.0000 
     15 C15         2.5690   -2.9760  -24.9730 C.3       1 S191        0.0000 
     16 C16         1.1170   -2.5310  -25.0570 C.3       1 S191        0.0000 
     17 N17         0.5730   -2.5640  -23.7160 N.4       1 S191        0.0000 
     18 N18        -2.9850   -1.8560  -26.5120 N.ar      1 S191        0.0000 
     19 C19        -3.5100   -0.8760  -27.2630 C.ar      1 S191        0.0000 
     20 C20        -2.8130   -0.1580  -28.2110 C.ar      1 S191        0.0000 
     21 C21        -3.4040    0.9270  -29.0160 C.2       1 S191        0.0000 
     22 N22        -4.7600    1.0480  -28.9520 N.am      1 S191        0.0000 
     23 O23        -2.6970    1.6670  -29.6880 O.2       1 S191        0.0000 
     24 C24         1.5700   -0.8380  -29.0600 C.ar      1 S191        0.0000 
     25 C25         2.9170   -0.8040  -29.4130 C.ar      1 S191        0.0000 
     26 H           2.8680    1.8082  -31.4462 H         1 S191        0.0000 
     27 H           0.5501    1.7760  -30.8210 H         1 S191        0.0000 
     28 H          -1.2469    0.8945  -29.8983 H         1 S191        0.0000 
     29 H          -1.6937   -3.7617  -25.3812 H         1 S191        0.0000 
     30 H           0.7245   -3.2754  -27.0163 H         1 S191        0.0000 
     31 H           0.0276   -5.5064  -26.3867 H         1 S191        0.0000 
     32 H           0.1805   -5.0946  -24.6700 H         1 S191        0.0000 
     33 H           2.3588   -4.8293  -26.7430 H         1 S191        0.0000 
     34 H           2.1986   -6.2097  -25.6435 H         1 S191        0.0000 
     35 H           3.0640   -2.7040  -25.9168 H         1 S191        0.0000 
     36 H           3.0555   -2.4021  -24.1707 H         1 S191        0.0000 
     37 H           1.0991   -1.5212  -25.4428 H         1 S191        0.0000 
     38 H          -4.5411   -0.6229  -27.1277 H         1 S191        0.0000 
     39 H          -5.1634    1.7766  -29.5056 H         1 S191        0.0000 
     40 H          -5.2322    0.3976  -28.3571 H         1 S191        0.0000 
     41 H           1.2307   -1.5702  -28.4176 H         1 S191        0.0000 
     42 H           3.5612   -1.5115  -29.0154 H         1 S191        0.0000 
     43 H           5.2681    1.0769  -30.4378 H         1 S191        0.0000 
     44 H           5.3787   -0.5168  -30.2531 H         1 S191        0.0000 
     45 H           4.9536    0.1001  -31.6761 H         1 S191        0.0000 
     46 H           0.7233   -1.7014  -23.2330 H         1 S191        0.0000 
     47 H          -0.4131   -2.7302  -23.7192 H         1 S191        0.0000 
     48 H           0.9901   -3.2858  -23.1637 H         1 S191        0.0000 
@<TRIPOS>BOND
     1    2    1 1    
     2   43    1 1    
     3   44    1 1    
     4   45    1 1    
     5    3    2 ar   
     6   25    2 ar   
     7    4    3 ar   
     8   26    3 1    
     9    5    4 ar   
    10   27    4 1    
    11    6    5 1    
    12   24    5 ar   
    13    7    6 1    
    14   28    6 1    
    15    8    7 ar   
    16   20    7 ar   
    17    9    8 ar   
    18   10    9 1    
    19   18    9 ar   
    20   11   10 1    
    21   29   10 1    
    22   12   11 1    
    23   16   11 1    
    24   30   11 1    
    25   13   12 1    
    26   31   12 1    
    27   32   12 1    
    28   14   13 1    
    29   33   13 1    
    30   34   13 1    
    31   15   14 1    
    32   16   15 1    
    33   35   15 1    
    34   36   15 1    
    35   17   16 1    
    36   37   16 1    
    37   46   17 1    
    38   47   17 1    
    39   48   17 1    
    40   19   18 ar   
    41   20   19 ar   
    42   38   19 1    
    43   21   20 1    
    44   22   21 am   
    45   23   21 2    
    46   39   22 1    
    47   40   22 1    
    48   25   24 ar   
    49   41   24 1    
    50   42   25 1    
@<TRIPOS>SUBSTRUCTURE
     1 S191        1 GROUP   
@<TRIPOS>SET

