#    Name: 3cpc_C52_1_INTS_M
#    Modification time : Mon Mar 24 22:09:19 2014

@<TRIPOS>MOLECULE
3cpc_C52_1_INTS_M
   94     0     9     0     0
SMALL
NO_CHARGES


@<TRIPOS>ATOM
      1 CA         15.6545   30.7195   34.2065 C.3       3 GLC5        0.0000 
      2 CA         14.3860   30.6050   32.3980 C.3       9 GLL5        0.0000 
      3 CA         16.9230   30.8340   36.0150 C.3       6 GLP5        0.0000 
      4 CA         13.3280   26.9680   34.3710 C.3       3 GLC5        0.0000 
      5 CA         13.1090   28.6440   33.0490 C.3       9 GLL5        0.0000 
      6 CA         13.5470   25.2920   35.6930 C.3       6 GLP5        0.0000 
      7 N          11.7425   26.7140   33.9160 N.am      2 SEC2        0.0000 
      8 N          12.2350   27.6940   32.7370 N.am      8 SEL2        0.0000 
      9 N          11.2500   25.7340   35.0950 N.am      5 SEP2        0.0000 
     10 CA         13.2065   26.5885   30.2735 C.3       3 GLC5        0.0000 
     11 CA         11.6840   27.6400   31.5090 C.3       9 GLL5        0.0000 
     12 CA         14.7290   25.5370   29.0380 C.3       6 GLP5        0.0000 
     13 CA         10.4055   27.2950   33.2205 C.3       3 GLC5        0.0000 
     14 CA          9.1270   26.9500   34.9320 C.3       6 GLP5        0.0000 
     15 CA         10.8870   29.0310   32.3255 C.3       3 GLC5        0.0000 
     16 CA         10.0900   30.4220   33.1420 C.3       6 GLP5        0.0000 
     17 O          10.0595   25.7830   32.0730 O.2       1 ALC1        0.0000 
     18 O          10.8050   26.6800   31.2330 O.2       7 ALL1        0.0000 
     19 O           9.3140   24.8860   32.9130 O.2       4 ALP1        0.0000 
     20 CA         11.6290   31.8590   30.1445 C.3       3 GLC5        0.0000 
     21 CA         13.2340   30.4780   29.8620 C.3       9 GLL5        0.0000 
     22 CA         10.0240   33.2400   30.4270 C.3       6 GLP5        0.0000 
     23 CA         16.7500   33.3605   29.9970 C.3       3 GLC5        0.0000 
     24 CA         15.6750   32.5600   31.7250 C.3       9 GLL5        0.0000 
     25 CA         17.8250   34.1610   28.2690 C.3       6 GLP5        0.0000 
     26 CA         14.5475   33.2045   33.4775 C.3       3 GLC5        0.0000 
     27 CA         13.4200   33.8490   35.2300 C.3       6 GLP5        0.0000 
     28 N          13.1045   35.0220   31.0370 N.am      2 SEC2        0.0000 
     29 N          14.0920   34.2010   31.6720 N.am      8 SEL2        0.0000 
     30 N          12.1170   35.8430   30.4020 N.am      5 SEP2        0.0000 
     31 CA         16.9850   29.9120   30.1765 C.3       3 GLC5        0.0000 
     32 CA         17.5620   30.7990   31.8040 C.3       9 GLL5        0.0000 
     33 CA         16.4080   29.0250   28.5490 C.3       6 GLP5        0.0000 
     34 CA         16.9400   29.0195   32.1765 C.3       3 GLC5        0.0000 
     35 CA         16.3180   27.2400   32.5490 C.3       6 GLP5        0.0000 
     36 CA         19.1405   29.3465   31.5375 C.3       3 GLC5        0.0000 
     37 CA         20.7190   27.8940   31.2710 C.3       6 GLP5        0.0000 
     38 CA         17.5715   31.4565   33.6450 C.3       3 GLC5        0.0000 
     39 CA         17.5810   32.1140   35.4860 C.3       6 GLP5        0.0000 
     40 CA         17.7055   34.3595   30.2805 C.3       3 GLC5        0.0000 
     41 CA         17.5860   34.5580   32.2920 C.3       9 GLL5        0.0000 
     42 CA         18.1410   35.8090   33.6585 C.3       3 GLC5        0.0000 
     43 CA         18.6960   37.0600   35.0250 C.3       6 GLP5        0.0000 
     44 CA         14.1305   35.2445   34.1705 C.3       3 GLC5        0.0000 
     45 CA         14.8410   36.6400   33.1110 C.3       9 GLL5        0.0000 
     46 CA         12.8320   35.8960   32.7235 C.3       3 GLC5        0.0000 
     47 CA         10.8230   35.1520   32.3360 C.3       6 GLP5        0.0000 
     48 CA         12.8390   40.8545   36.3670 C.3       3 GLC5        0.0000 
     49 CA         13.7330   39.2520   35.0970 C.3       9 GLL5        0.0000 
     50 CA         11.9450   42.4570   37.6370 C.3       6 GLP5        0.0000 
     51 CA         11.0940   39.8505   32.5240 C.3       3 GLC5        0.0000 
     52 CA         12.3810   38.8860   33.4320 C.3       9 GLL5        0.0000 
     53 CA          9.8070   40.8150   31.6160 C.3       6 GLP5        0.0000 
     54 CA         10.4540   38.6990   33.7145 C.3       3 GLC5        0.0000 
     55 CA          8.5270   38.5120   33.9970 C.3       6 GLP5        0.0000 
     56 CA         12.8150   38.3545   31.4620 C.3       3 GLC5        0.0000 
     57 CA         13.2490   37.8230   29.4920 C.3       6 GLP5        0.0000 
     58 CA         13.1325   35.5815   35.0485 C.3       3 GLC5        0.0000 
     59 CA         12.8450   37.3140   34.8670 C.3       9 GLL5        0.0000 
     60 CA         13.1994   30.4142   34.2541 C.3       3 GLC5        0.0000 
     61 CA         12.8800   31.4560   35.8600 C.3       6 GLP5        0.0000 
     62 CA         14.7360   29.5145   29.4475 C.3       3 GLC5        0.0000 
     63 CA         12.8940   29.5300   30.8300 C.3       9 GLL5        0.0000 
     64 CA         14.7622   28.3456   32.1441 C.3       3 GLC5        0.0000 
     65 CA         11.6482   29.9366   32.4406 C.3       3 GLC5        0.0000 
     66 CA         15.4270   30.2727   29.6738 C.3       3 GLC5        0.0000 
     67 CA         14.7370   31.5550   31.4340 C.3       9 GLL5        0.0000 
     68 CA         12.6750   32.5973   31.3727 C.3       3 GLC5        0.0000 
     69 CA         14.1550   31.4860   30.1630 C.3       9 GLL5        0.0000 
     70 CA         10.9040   33.6740   31.9470 C.3       6 GLP5        0.0000 
     71 CA         16.9690   32.2563   33.6500 C.3       3 GLC5        0.0000 
     72 CA         18.9396   32.3270   30.6344 C.3       3 GLC5        0.0000 
     73 CA         17.0390   32.2370   31.9030 C.3       9 GLL5        0.0000 
     74 CA         20.2390   32.2810   29.2510 C.3       6 GLP5        0.0000 
     75 CA         19.7445   34.0300   33.1005 C.3       3 GLC5        0.0000 
     76 CA         17.9800   33.2280   32.1820 C.3       9 GLL5        0.0000 
     77 CA         21.7060   34.1670   33.9640 C.3       6 GLP5        0.0000 
     78 CA         17.6820   33.0035   33.8615 C.3       3 GLC5        0.0000 
     79 CA         17.4445   36.9153   33.4453 C.3       3 GLC5        0.0000 
     80 CA         15.8620   36.2750   32.2320 C.3       9 GLL5        0.0000 
     81 CA         14.3003   37.1402   31.0817 C.3       3 GLC5        0.0000 
     82 CA         17.9790   38.8077   31.2795 C.3       3 GLC5        0.0000 
     83 CA         16.1600   38.6090   31.6330 C.3       9 GLL5        0.0000 
     84 CA         19.6160   39.6780   30.9930 C.3       6 GLP5        0.0000 
     85 CA         14.7955   37.8803   30.5290 C.3       3 GLC5        0.0000 
     86 CA         15.8509   38.1553   34.5415 C.3       3 GLC5        0.0000 
     87 CA         15.1310   38.9610   32.5100 C.3       9 GLL5        0.0000 
     88 CA         16.8080   38.1760   36.2370 C.3       6 GLP5        0.0000 
     89 CA         14.0252   38.1457   31.1867 C.3       3 GLC5        0.0000 
     90 CA         14.4720   37.9760   33.2530 C.3       9 GLL5        0.0000 
     91 CA         14.9981   38.1185   35.4975 C.3       3 GLC5        0.0000 
     92 CA         12.6421   37.9500   36.4340 C.3       3 GLC5        0.0000 
     93 CA         12.0960   37.8390   38.1100 C.3       6 GLP5        0.0000 
     94 CA         11.8366   36.5607   33.3389 C.3       3 GLC5        0.0000 
@<TRIPOS>BOND
@<TRIPOS>SUBSTRUCTURE
     1 ALC1       17 GROUP        1 X    ALC  0     ROOT ALC X 1
     2 SEC2        7 GROUP        1 X    SEC  0     **** SEC X 2
     3 GLC5        1 GROUP        1 X    GLC  0     **** GLC X 6
     4 ALP1       19 GROUP        1 Y    ALP  0     ROOT ALP Y 8
     5 SEP2        9 GROUP        1 Y    SEP  0     **** SEP Y 9
     6 GLP5        3 GROUP        1 Y    GLP  0     **** GLP Y 13
     7 ALL1       18 GROUP        1 Z    ALL  0     ROOT ALL Z 15
     8 SEL2        8 GROUP        1 Z    SEL  0     **** SEL Z 16
     9 GLL5        2 GROUP        1 Z    GLL  0     **** GLL Z 20
@<TRIPOS>SET

