#    Name: 3cpc_C52_1_ligand
#    Modification time : Mon Mar 24 22:09:19 2014

@<TRIPOS>MOLECULE
3cpc_C52_1_ligand
   44    47     1     0     0
SMALL
NO_CHARGES


@<TRIPOS>ATOM
      1 C8         14.3860   30.6050   32.3980 C.ar      1 C521        0.0000 
      2 C3         13.4710   29.5970   32.0970 C.ar      1 C521        0.0000 
      3 C4         13.1090   28.6440   33.0490 C.ar      1 C521        0.0000 
      4 N2         12.2350   27.6940   32.7370 N.ar      1 C521        0.0000 
      5 C1         11.6840   27.6400   31.5090 C.ar      1 C521        0.0000 
      6 N3         10.8050   26.6800   31.2330 N.pl3     1 C521        0.0000 
      7 N1         12.0060   28.5490   30.5640 N.ar      1 C521        0.0000 
      8 C2         12.8940   29.5300   30.8300 C.ar      1 C521        0.0000 
      9 C5         13.2340   30.4780   29.8620 C.ar      1 C521        0.0000 
     10 C6         14.1550   31.4860   30.1630 C.ar      1 C521        0.0000 
     11 C7         14.7370   31.5550   31.4340 C.ar      1 C521        0.0000 
     12 C9         15.6750   32.5600   31.7250 C.2       1 C521        0.0000 
     13 C10        15.2750   33.9020   31.8270 C.2       1 C521        0.0000 
     14 O1         14.0920   34.2010   31.6720 O.2       1 C521        0.0000 
     15 C13        17.0390   32.2370   31.9030 C.2       1 C521        0.0000 
     16 C14        17.5620   30.7990   31.8040 C.3       1 C521        0.0000 
     17 C12        17.9800   33.2280   32.1820 C.2       1 C521        0.0000 
     18 C11        17.5860   34.5580   32.2920 C.2       1 C521        0.0000 
     19 N4         16.2320   34.9150   32.1100 N.am      1 C521        0.0000 
     20 C15        15.8620   36.2750   32.2320 C.ar      1 C521        0.0000 
     21 C16        14.8410   36.6400   33.1110 C.ar      1 C521        0.0000 
     22 C20        16.5240   37.2660   31.4990 C.ar      1 C521        0.0000 
     23 C19        16.1600   38.6090   31.6330 C.ar      1 C521        0.0000 
     24 C18        15.1310   38.9610   32.5100 C.ar      1 C521        0.0000 
     25 C17        14.4720   37.9760   33.2530 C.ar      1 C521        0.0000 
     26 C21        13.3300   38.3640   34.2010 C.3       1 C521        0.0000 
     27 F2         13.7330   39.2520   35.0970 F         1 C521        0.0000 
     28 F3         12.3810   38.8860   33.4320 F         1 C521        0.0000 
     29 F1         12.8450   37.3140   34.8670 F         1 C521        0.0000 
     30 H          14.8073   30.6517   33.3364 H         1 C521        0.0000 
     31 H          13.5391   28.7031   33.9919 H         1 C521        0.0000 
     32 H          10.2630   26.3448   32.0037 H         1 C521        0.0000 
     33 H          10.7656   26.3802   30.2798 H         1 C521        0.0000 
     34 H          12.8080   30.4351   28.9295 H         1 C521        0.0000 
     35 H          14.4063   32.1801   29.4478 H         1 C521        0.0000 
     36 H          18.9693   32.9731   32.3068 H         1 C521        0.0000 
     37 H          18.2744   35.2882   32.5057 H         1 C521        0.0000 
     38 H          14.3564   35.9139   33.6595 H         1 C521        0.0000 
     39 H          17.2841   37.0039   30.8569 H         1 C521        0.0000 
     40 H          16.6445   39.3297   31.0919 H         1 C521        0.0000 
     41 H          14.8570   39.9459   32.6100 H         1 C521        0.0000 
     42 H          18.5490   30.7514   31.9574 H         1 C521        0.0000 
     43 H          17.1312   30.1998   32.4789 H         1 C521        0.0000 
     44 H          17.3858   30.4009   30.9038 H         1 C521        0.0000 
@<TRIPOS>BOND
     1    2    1 ar   
     2   11    1 ar   
     3   30    1 1    
     4    3    2 ar   
     5    8    2 ar   
     6    4    3 ar   
     7   31    3 1    
     8    5    4 ar   
     9    6    5 1    
    10    7    5 ar   
    11   32    6 1    
    12   33    6 1    
    13    8    7 ar   
    14    9    8 ar   
    15   10    9 ar   
    16   34    9 1    
    17   11   10 ar   
    18   35   10 1    
    19   12   11 1    
    20   13   12 1    
    21   15   12 2    
    22   14   13 2    
    23   19   13 am   
    24   16   15 1    
    25   17   15 1    
    26   42   16 1    
    27   43   16 1    
    28   44   16 1    
    29   18   17 2    
    30   36   17 1    
    31   19   18 1    
    32   37   18 1    
    33   20   19 1    
    34   21   20 ar   
    35   22   20 ar   
    36   25   21 ar   
    37   38   21 1    
    38   23   22 ar   
    39   39   22 1    
    40   24   23 ar   
    41   40   23 1    
    42   25   24 ar   
    43   41   24 1    
    44   26   25 1    
    45   27   26 1    
    46   28   26 1    
    47   29   26 1    
@<TRIPOS>SUBSTRUCTURE
     1 C521        1 GROUP   
@<TRIPOS>SET

