#    Name: 3ik1_20C_1_INTS_M
#    Modification time : Tue Mar 25 16:39:16 2014

@<TRIPOS>MOLECULE
3ik1_20C_1_INTS_M
   26     0     3     0     0
SMALL
NO_CHARGES


@<TRIPOS>ATOM
      1 CA        -32.2125    9.2430   31.8595 C.3       1 GLC5        0.0000 
      2 CA        -30.0070    9.1290   31.5260 C.3       3 GLL5        0.0000 
      3 CA        -34.4180    9.3570   32.1930 C.3       2 GLP5        0.0000 
      4 CA        -27.3960   10.3000   32.7630 C.3       1 GLC5        0.0000 
      5 CA        -27.9930   10.5320   31.0760 C.3       3 GLL5        0.0000 
      6 CA        -26.7990   10.0680   34.4500 C.3       2 GLP5        0.0000 
      7 CA        -32.6995    7.5975   28.7415 C.3       1 GLC5        0.0000 
      8 CA        -31.1910    7.7670   29.7930 C.3       3 GLL5        0.0000 
      9 CA        -34.2080    7.4280   27.6900 C.3       2 GLP5        0.0000 
     10 CA        -32.4575    8.0680   31.4330 C.3       1 GLC5        0.0000 
     11 CA        -33.7240    8.3690   33.0730 C.3       2 GLP5        0.0000 
     12 CA        -27.2905    9.8885   21.8685 C.3       1 GLC5        0.0000 
     13 CA        -26.2030   10.0230   23.4810 C.3       3 GLL5        0.0000 
     14 CA        -28.3780    9.7540   20.2560 C.3       2 GLP5        0.0000 
     15 CA        -28.0155    8.7785   22.5565 C.3       1 GLC5        0.0000 
     16 CA        -26.7900    8.7700   24.0220 C.3       3 GLL5        0.0000 
     17 CA        -29.2410    8.7870   21.0910 C.3       2 GLP5        0.0000 
     18 CA        -28.8695    9.8020   24.8220 C.3       1 GLC5        0.0000 
     19 CA        -27.2410    8.7630   25.3380 C.3       3 GLL5        0.0000 
     20 CA        -30.4980   10.8410   24.3060 C.3       2 GLP5        0.0000 
     21 CA        -28.8633    9.9992   33.3303 C.3       1 GLC5        0.0000 
     22 CA        -28.2280   10.4300   34.9420 C.3       2 GLP5        0.0000 
     23 CA        -24.4582   11.2435   23.4763 C.3       1 GLC5        0.0000 
     24 CA        -26.1420   11.1170   24.3440 C.3       3 GLL5        0.0000 
     25 CA        -22.7440   11.9170   23.0400 C.3       2 GLP5        0.0000 
     26 CA        -28.5089   10.8117   24.7215 C.3       1 GLC5        0.0000 
@<TRIPOS>BOND
@<TRIPOS>SUBSTRUCTURE
     1 GLC5        1 GROUP        1 X    GLC  0     ROOT GLC X 6
     2 GLP5        3 GROUP        1 Y    GLP  0     ROOT GLP Y 13
     3 GLL5        2 GROUP        1 Z    GLL  0     ROOT GLL Z 20
@<TRIPOS>SET

