#    Name: 3ik1_20C_1_ligand
#    Modification time : Tue Mar 25 16:39:16 2014

@<TRIPOS>MOLECULE
3ik1_20C_1_ligand
   32    34     1     0     0
SMALL
NO_CHARGES


@<TRIPOS>ATOM
      1 C1        -30.0980    8.7080   30.2130 C.ar      1 20C490      0.0000 
      2 C2        -30.0070    9.1290   31.5260 C.ar      1 20C490      0.0000 
      3 C3        -28.9900   10.0080   31.9110 C.ar      1 20C490      0.0000 
      4 C4        -27.9930   10.5320   31.0760 C.ar      1 20C490      0.0000 
      5 C5        -28.0130   10.1590   29.7570 C.ar      1 20C490      0.0000 
      6 C6        -29.0730    9.2330   29.2670 C.ar      1 20C490      0.0000 
      7 C7        -27.1760   10.4770   28.5660 C.2       1 20C490      0.0000 
      8 N8        -27.6470    9.8240   27.4760 N.am      1 20C490      0.0000 
      9 C9        -28.7360    9.1070   27.8220 C.2       1 20C490      0.0000 
     10 C10       -27.1740    9.8680   26.2080 C.ar      1 20C490      0.0000 
     11 O11       -29.4200    8.3750   27.0190 O.2       1 20C490      0.0000 
     12 O12       -26.1550   11.2470   28.6070 O.2       1 20C490      0.0000 
     13 C13       -31.1910    7.7670   29.7930 C.3       1 20C490      0.0000 
     14 C14       -26.6210   11.0280   25.6520 C.ar      1 20C490      0.0000 
     15 C15       -26.1420   11.1170   24.3440 C.ar      1 20C490      0.0000 
     16 C16       -26.2030   10.0230   23.4810 C.ar      1 20C490      0.0000 
     17 C17       -26.7900    8.7700   24.0220 C.ar      1 20C490      0.0000 
     18 C18       -27.2410    8.7630   25.3380 C.ar      1 20C490      0.0000 
     19 O19       -26.8910    7.6470   23.2540 O.3       1 20C490      0.0000 
     20 C20       -25.6750   10.1170   22.0640 C.2       1 20C490      0.0000 
     21 O21       -25.9590   11.1130   21.3480 O.co2     1 20C490      0.0000 
     22 O22       -24.9390    9.1980   21.6320 O.co2     1 20C490      0.0000 
     23 H         -30.6847    8.7995   32.2266 H         1 20C490      0.0000 
     24 H         -28.9695   10.3090   32.9357 H         1 20C490      0.0000 
     25 H         -27.2919   11.1605   31.4471 H         1 20C490      0.0000 
     26 H         -26.5636   11.8874   26.2611 H         1 20C490      0.0000 
     27 H         -25.7361   12.0071   24.0104 H         1 20C490      0.0000 
     28 H         -27.6635    7.8714   25.7165 H         1 20C490      0.0000 
     29 H         -31.1392    7.5490   28.8184 H         1 20C490      0.0000 
     30 H         -31.1463    6.9004   30.2900 H         1 20C490      0.0000 
     31 H         -32.0981    8.1537   29.9591 H         1 20C490      0.0000 
     32 H         -26.2896    7.8131   22.4725 H         1 20C490      0.0000 
@<TRIPOS>BOND
     1    2    1 ar   
     2    6    1 ar   
     3   13    1 1    
     4    3    2 ar   
     5   23    2 1    
     6    4    3 ar   
     7   24    3 1    
     8    5    4 ar   
     9   25    4 1    
    10    6    5 ar   
    11    7    5 1    
    12    9    6 1    
    13    8    7 am   
    14   12    7 2    
    15    9    8 am   
    16   10    8 1    
    17   11    9 2    
    18   14   10 ar   
    19   18   10 ar   
    20   29   13 1    
    21   30   13 1    
    22   31   13 1    
    23   15   14 ar   
    24   26   14 1    
    25   16   15 ar   
    26   27   15 1    
    27   17   16 ar   
    28   20   16 1    
    29   18   17 ar   
    30   19   17 1    
    31   28   18 1    
    32   32   19 1    
    33   21   20 ar   
    34   22   20 ar   
@<TRIPOS>SUBSTRUCTURE
     1 20C490      1 GROUP   
@<TRIPOS>SET

