#    Name: 3PTQ_2_CAVITY_N1_6.mol2
#    Modification time : Mon Mar 10 15:20:07 2014

@<TRIPOS>MOLECULE
3PTQ_2_CAVITY_N1_6.mol2
  113     0     6     0     0
SMALL
NO_CHARGES


@<TRIPOS>ATOM
      1 O         -18.0074   24.7477   23.9766 O.2       2 ALA2        0.0000 
      2 O         -18.5572   25.7666   23.0229 O.2       2 ALA2        0.0000 
      3 DU        -19.1071   26.7856   22.0692 H         6 CUB7        0.0000 
      4 CA        -18.1145   23.6949   22.9134 C.3       5 GLY6        0.0000 
      5 CA        -18.6643   24.7139   21.9598 C.3       5 GLY6        0.0000 
      6 DU        -19.2141   25.7328   21.0061 H         6 CUB7        0.0000 
      7 DU        -20.3138   27.7707   19.0988 H         6 CUB7        0.0000 
      8 CA        -18.7714   23.6611   20.8967 C.3       5 GLY6        0.0000 
      9 CA        -19.3212   24.6800   19.9430 C.3       5 GLY6        0.0000 
     10 DU        -19.8710   25.6990   18.9894 H         6 CUB7        0.0000 
     11 N         -20.4209   26.7179   18.0357 N.2       2 ALA2        0.0000 
     12 N         -20.9707   27.7368   17.0821 N.2       2 ALA2        0.0000 
     13 CA        -19.4283   23.6273   18.8799 C.3       5 GLY6        0.0000 
     14 DU        -19.9781   24.6462   17.9263 H         6 CUB7        0.0000 
     15 N         -20.5279   25.6651   16.9726 N.2       2 ALA2        0.0000 
     16 N         -21.0778   26.6841   16.0190 N.2       2 ALA2        0.0000 
     17 CA        -20.0852   23.5934   16.8632 C.3       5 GLY6        0.0000 
     18 O         -20.6350   24.6124   15.9095 O.2       2 ALA2        0.0000 
     19 CA        -21.1848   25.6313   14.9558 C.3       5 GLY6        0.0000 
     20 CA        -20.1922   22.5406   15.8000 C.3       5 GLY6        0.0000 
     21 OG        -20.7421   23.5596   14.8464 O.2       1 SER1        0.0000 
     22 O         -20.2993   21.4879   14.7369 O.2       2 ALA2        0.0000 
     23 CA        -23.8945   20.3029   22.6217 C.3       5 GLY6        0.0000 
     24 CZ        -24.4444   21.3219   21.6681 C.ar      4 PHE5        0.0000 
     25 CZ        -24.0016   19.2501   21.5586 C.ar      4 PHE5        0.0000 
     26 NZ        -24.5514   20.2691   20.6050 N.2       3 LYS4        0.0000 
     27 CZ        -24.1087   18.1974   20.4955 C.ar      4 PHE5        0.0000 
     28 NZ        -24.6585   19.2163   19.5419 N.2       3 LYS4        0.0000 
     29 CA        -25.2083   20.2353   18.5882 C.3       5 GLY6        0.0000 
     30 CZ        -24.2158   17.1446   19.4324 C.ar      4 PHE5        0.0000 
     31 NZ        -24.7656   18.1635   18.4787 N.2       3 LYS4        0.0000 
     32 CZ        -25.3154   19.1825   17.5251 C.ar      4 PHE5        0.0000 
     33 OG        -24.3228   16.0918   18.3693 O.2       1 SER1        0.0000 
     34 NZ        -24.8727   17.1108   17.4156 N.2       3 LYS4        0.0000 
     35 CA        -25.4225   18.1297   16.4620 C.3       5 GLY6        0.0000 
     36 NZ        -24.4299   15.0391   17.3062 N.2       3 LYS4        0.0000 
     37 NZ        -24.9797   16.0580   16.3525 N.2       3 LYS4        0.0000 
     38 NZ        -25.6072   16.8230   19.8910 N.2       3 LYS4        0.0000 
     39 NZ        -26.1571   17.8419   18.9374 N.2       3 LYS4        0.0000 
     40 NZ        -25.7143   15.7702   18.8279 N.2       3 LYS4        0.0000 
     41 NZ        -26.2641   16.7892   17.8743 N.2       3 LYS4        0.0000 
     42 CZ        -26.8140   17.8081   16.9206 C.ar      4 PHE5        0.0000 
     43 CZ        -25.8214   14.7174   17.7648 C.ar      4 PHE5        0.0000 
     44 O         -26.3712   15.7364   16.8112 O.2       2 ALA2        0.0000 
     45 CZ        -22.9458   22.6962   22.2726 C.ar      4 PHE5        0.0000 
     46 N         -22.5031   20.6245   22.1631 N.2       2 ALA2        0.0000 
     47 CZ        -23.0529   21.6435   21.2095 C.ar      4 PHE5        0.0000 
     48 CZ        -23.6027   22.6624   20.2558 C.ar      4 PHE5        0.0000 
     49 CZ        -22.6101   19.5718   21.1000 C.ar      4 PHE5        0.0000 
     50 CZ        -23.1600   20.5907   20.1463 C.ar      4 PHE5        0.0000 
     51 CA        -23.7098   21.6096   19.1927 C.3       5 GLY6        0.0000 
     52 CZ        -23.2670   19.5379   19.0832 C.ar      4 PHE5        0.0000 
     53 CA        -23.8169   20.5569   18.1296 C.3       5 GLY6        0.0000 
     54 CA        -24.3667   21.5758   17.1759 C.3       5 GLY6        0.0000 
     55 CZ        -23.3741   18.4852   18.0201 C.ar      4 PHE5        0.0000 
     56 NZ        -23.9239   19.5041   17.0665 N.2       3 LYS4        0.0000 
     57 NZ        -22.9313   16.4134   17.9107 N.2       3 LYS4        0.0000 
     58 NZ        -24.0310   18.4513   16.0034 N.2       3 LYS4        0.0000 
     59 NZ        -27.6556   16.4675   18.3329 N.2       3 LYS4        0.0000 
     60 O         -19.8416   26.4978   24.5446 O.2       2 ALA2        0.0000 
     61 CA        -20.3915   27.5167   23.5910 C.3       5 GLY6        0.0000 
     62 O         -19.9487   25.4450   23.4815 O.2       2 ALA2        0.0000 
     63 CZ        -20.4985   26.4640   22.5279 C.ar      4 PHE5        0.0000 
     64 CZ        -21.0484   27.4829   21.5742 C.ar      4 PHE5        0.0000 
     65 N         -20.0558   24.3922   22.4184 N.2       2 ALA2        0.0000 
     66 CZ        -21.1554   26.4301   20.5111 C.ar      4 PHE5        0.0000 
     67 N         -21.7053   27.4491   19.5575 N.2       2 ALA2        0.0000 
     68 CA        -15.9884   24.3043   19.9794 C.3       5 GLY6        0.0000 
     69 CZ        -22.3328   28.2141   23.0960 C.ar      4 PHE5        0.0000 
     70 CZ        -22.4398   27.1613   22.0329 C.ar      4 PHE5        0.0000 
     71 CZ        -22.9897   28.1802   21.0792 C.ar      4 PHE5        0.0000 
     72 N         -23.0967   27.1274   20.0161 N.2       2 ALA2        0.0000 
     73 N         -21.5543   23.0179   21.8139 N.2       2 ALA2        0.0000 
     74 CZ        -22.1042   24.0368   20.8603 C.ar      4 PHE5        0.0000 
     75 CZ        -22.6540   25.0557   19.9066 C.ar      4 PHE5        0.0000 
     76 CZ        -21.6614   21.9651   20.7508 C.ar      4 PHE5        0.0000 
     77 DU        -22.2112   22.9840   19.7972 H         6 CUB7        0.0000 
     78 O         -22.7611   24.0030   18.8435 O.2       2 ALA2        0.0000 
     79 CZ        -21.7685   20.9123   19.6877 C.ar      4 PHE5        0.0000 
     80 DU        -22.3183   21.9313   18.7341 H         6 CUB7        0.0000 
     81 O         -22.8681   22.9502   17.7804 O.2       2 ALA2        0.0000 
     82 CZ        -22.4254   20.8785   17.6710 C.ar      4 PHE5        0.0000 
     83 CZ        -22.9752   21.8974   16.7173 C.ar      4 PHE5        0.0000 
     84 NZ        -22.5324   19.8257   16.6078 N.2       3 LYS4        0.0000 
     85 CA        -20.1628   23.3395   21.3553 C.3       5 GLY6        0.0000 
     86 DU        -20.7127   24.3584   20.4017 H         6 CUB7        0.0000 
     87 N         -21.2625   25.3773   19.4480 N.2       2 ALA2        0.0000 
     88 N         -21.8123   26.3963   18.4944 N.2       2 ALA2        0.0000 
     89 CA        -20.2699   22.2867   20.2922 C.3       5 GLY6        0.0000 
     90 CA        -20.8198   23.3056   19.3385 C.3       5 GLY6        0.0000 
     91 O         -21.3696   24.3246   18.3849 O.2       2 ALA2        0.0000 
     92 N         -21.9194   25.3435   17.4312 N.2       2 ALA2        0.0000 
     93 CA        -20.9268   22.2529   18.2754 C.3       5 GLY6        0.0000 
     94 O         -21.4767   23.2718   17.3218 O.2       2 ALA2        0.0000 
     95 O         -22.0265   24.2907   16.3681 O.2       2 ALA2        0.0000 
     96 O         -21.0339   21.2001   17.2123 O.2       2 ALA2        0.0000 
     97 CZ        -21.5837   22.2190   16.2587 C.ar      4 PHE5        0.0000 
     98 CZ        -22.1336   23.2380   15.3050 C.ar      4 PHE5        0.0000 
     99 O         -21.1410   20.1473   16.1492 O.2       2 ALA2        0.0000 
    100 CZ        -21.6908   21.1663   15.1956 C.ar      4 PHE5        0.0000 
    101 CA        -16.7230   24.0165   22.4548 C.3       5 GLY6        0.0000 
    102 CA        -17.2728   25.0355   21.5012 C.3       5 GLY6        0.0000 
    103 DU        -17.8226   26.0544   20.5475 H         6 CUB7        0.0000 
    104 CA        -17.9297   25.0016   19.4844 C.3       5 GLY6        0.0000 
    105 DU        -18.4795   26.0206   18.5307 H         6 CUB7        0.0000 
    106 DU        -19.0294   27.0395   17.5771 H         6 CUB7        0.0000 
    107 CA        -18.0368   23.9489   18.4213 C.3       5 GLY6        0.0000 
    108 DU        -18.5866   24.9678   17.4676 H         6 CUB7        0.0000 
    109 CA        -19.1364   25.9867   16.5140 C.3       5 GLY6        0.0000 
    110 CA        -18.6937   23.9150   16.4045 C.3       5 GLY6        0.0000 
    111 CA        -19.2435   24.9340   15.4509 C.3       5 GLY6        0.0000 
    112 CA        -18.8008   22.8623   15.3414 C.3       5 GLY6        0.0000 
    113 OG        -19.3506   23.8812   14.3878 O.2       1 SER1        0.0000 
@<TRIPOS>BOND
@<TRIPOS>SUBSTRUCTURE
     1 SER1       21 GROUP   
     2 ALA2        1 GROUP   
     3 LYS4       26 GROUP   
     4 PHE5       24 GROUP   
     5 GLY6        4 GROUP   
     6 CUB7        3 GROUP   
@<TRIPOS>SET

