#    Name: 3ptq_NFG_2_INTS_M
#    Modification time : Tue Mar 25 08:28:43 2014

@<TRIPOS>MOLECULE
3ptq_NFG_2_INTS_M
   55     0     9     0     0
SMALL
NO_CHARGES


@<TRIPOS>ATOM
      1 CA        -25.3585   16.0815   20.8560 C.3       3 GLC5        0.0000 
      2 CA        -26.3070   16.8800   19.2240 C.3       9 GLL5        0.0000 
      3 CA        -24.4100   15.2830   22.4880 C.3       6 GLP5        0.0000 
      4 CA        -29.0865   18.2375   18.2850 C.3       3 GLC5        0.0000 
      5 CA        -28.6410   16.3190   19.1520 C.3       9 GLL5        0.0000 
      6 CA        -29.5320   20.1560   17.4180 C.3       6 GLP5        0.0000 
      7 CA        -29.2425   17.5560   20.4595 C.3       3 GLC5        0.0000 
      8 CA        -29.8440   18.7930   21.7670 C.3       6 GLP5        0.0000 
      9 CA        -27.0690   13.8315   16.4530 C.3       3 GLC5        0.0000 
     10 CA        -27.3170   15.5490   17.3070 C.3       9 GLL5        0.0000 
     11 CA        -26.8210   12.1140   15.5990 C.3       6 GLP5        0.0000 
     12 N         -29.6145   15.7715   16.3305 N.am      2 SEC2        0.0000 
     13 N         -28.1510   15.7970   16.1710 N.am      8 SEL2        0.0000 
     14 N         -31.0780   15.7460   16.4900 N.am      5 SEP2        0.0000 
     15 N         -27.5390   16.5635   15.0390 N.am      2 SEC2        0.0000 
     16 N         -26.9270   17.3300   13.9070 N.am      5 SEP2        0.0000 
     17 O         -28.3725   15.1455   15.0435 O.2       1 ALC1        0.0000 
     18 O         -28.1510   15.7970   16.1710 O.2       7 ALL1        0.0000 
     19 O         -28.5940   14.4940   13.9160 O.2       4 ALP1        0.0000 
     20 CA        -25.7880   16.7570   15.2595 C.3       3 GLC5        0.0000 
     21 CA        -25.8300   15.5680   16.9510 C.3       9 GLL5        0.0000 
     22 CA        -25.7460   17.9460   13.5680 C.3       6 GLP5        0.0000 
     23 N         -26.0115   14.4550   14.4565 N.am      2 SEC2        0.0000 
     24 N         -25.4930   14.8500   15.7640 N.am      8 SEL2        0.0000 
     25 N         -26.5300   14.0600   13.1490 N.am      5 SEP2        0.0000 
     26 N         -26.2100   16.0900   14.8355 N.am      2 SEC2        0.0000 
     27 O         -24.3405   14.8960   15.0925 O.2       1 ALC1        0.0000 
     28 O         -25.4930   14.8500   15.7640 O.2       7 ALL1        0.0000 
     29 O         -23.1880   14.9420   14.4210 O.2       4 ALP1        0.0000 
     30 CA        -21.9965   16.5000   18.5555 C.3       3 GLC5        0.0000 
     31 CA        -23.5700   15.0320   17.9750 C.3       9 GLL5        0.0000 
     32 CA        -20.4230   17.9680   19.1360 C.3       6 GLP5        0.0000 
     33 CA        -23.9455   13.2160   18.0425 C.3       3 GLC5        0.0000 
     34 CA        -24.3210   11.4000   18.1100 C.3       6 GLP5        0.0000 
     35 CA        -21.8635   14.3835   17.9030 C.3       3 GLC5        0.0000 
     36 CA        -20.1570   13.7350   17.8310 C.3       6 GLP5        0.0000 
     37 N         -22.6090   16.5140   16.6550 N.am      2 SEC2        0.0000 
     38 N         -23.0960   16.3810   17.9870 N.am      8 SEL2        0.0000 
     39 N         -22.1220   16.6470   15.3230 N.am      5 SEP2        0.0000 
     40 CA        -27.6593   18.3480   17.7455 C.3       3 GLC5        0.0000 
     41 CA        -28.3850   19.9440   16.6930 C.3       6 GLP5        0.0000 
     42 CA        -25.7355   13.5265   17.1235 C.3       3 GLC5        0.0000 
     43 CA        -26.0140   11.7640   16.6930 C.3       6 GLP5        0.0000 
     44 CA        -24.2040   14.5640   19.9435 C.3       3 GLC5        0.0000 
     45 CA        -25.0840   15.0100   18.1570 C.3       9 GLL5        0.0000 
     46 CA        -24.0810   14.1070   21.8210 C.3       6 GLP5        0.0000 
     47 CA        -25.5388   20.9575   18.5830 C.3       3 GLC5        0.0000 
     48 CA        -24.8600   18.9540   19.0890 C.3       9 GLL5        0.0000 
     49 CA        -26.6860   22.6640   18.5010 C.3       6 GLP5        0.0000 
     50 CA        -24.9530   21.7460   18.9308 C.3       3 GLC5        0.0000 
     51 CA        -23.1450   20.5960   18.7110 C.3       9 GLL5        0.0000 
     52 CA        -25.6567   21.3055   19.5660 C.3       3 GLC5        0.0000 
     53 CA        -24.2360   20.4740   20.8630 C.3       9 GLL5        0.0000 
     54 CA        -25.5828   19.5900   22.5000 C.3       3 GLC5        0.0000 
     55 CA        -26.5380   19.2330   24.3690 C.3       6 GLP5        0.0000 
@<TRIPOS>BOND
@<TRIPOS>SUBSTRUCTURE
     1 ALC1       17 GROUP        1 X    ALC  0     ROOT ALC X 1
     2 SEC2       12 GROUP        1 X    SEC  0     **** SEC X 2
     3 GLC5        1 GROUP        1 X    GLC  0     **** GLC X 6
     4 ALP1       19 GROUP        1 Y    ALP  0     ROOT ALP Y 8
     5 SEP2       14 GROUP        1 Y    SEP  0     **** SEP Y 9
     6 GLP5        3 GROUP        1 Y    GLP  0     **** GLP Y 13
     7 ALL1       18 GROUP        1 Z    ALL  0     ROOT ALL Z 15
     8 SEL2       13 GROUP        1 Z    SEL  0     **** SEL Z 16
     9 GLL5        2 GROUP        1 Z    GLL  0     **** GLL Z 20
@<TRIPOS>SET

