#    Name: 3ptq_NFG_2_ligand
#    Modification time : Tue Mar 25 08:28:43 2014

@<TRIPOS>MOLECULE
3ptq_NFG_2_ligand
   37    38     1     0     0
SMALL
NO_CHARGES


@<TRIPOS>ATOM
      1 C1        -26.3070   16.8800   19.2240 C.3       1 NFG1002     0.0000 
      2 O1        -25.6110   17.9320   18.5610 O.3       1 NFG1002     0.0000 
      3 C2        -27.5600   16.6240   18.3720 C.3       1 NFG1002     0.0000 
      4 F         -28.6410   16.3190   19.1520 F         1 NFG1002     0.0000 
      5 C3        -27.3170   15.5490   17.3070 C.3       1 NFG1002     0.0000 
      6 O3        -28.1510   15.7970   16.1710 O.3       1 NFG1002     0.0000 
      7 C4        -25.8300   15.5680   16.9510 C.3       1 NFG1002     0.0000 
      8 O4        -25.4930   14.8500   15.7640 O.3       1 NFG1002     0.0000 
      9 C5        -25.0840   15.0100   18.1570 C.3       1 NFG1002     0.0000 
     10 C6        -23.5700   15.0320   17.9750 C.3       1 NFG1002     0.0000 
     11 O6        -23.0960   16.3810   17.9870 O.3       1 NFG1002     0.0000 
     12 O5        -25.4540   15.7240   19.3510 O.3       1 NFG1002     0.0000 
     13 C11       -24.8600   18.9540   19.0890 C.ar      1 NFG1002     0.0000 
     14 C12       -23.9230   19.5480   18.2410 C.ar      1 NFG1002     0.0000 
     15 N1        -23.7310   19.1320   16.9520 N.pl3     1 NFG1002     0.0000 
     16 O11       -24.3800   18.2110   16.4770 O.2       1 NFG1002     0.0000 
     17 O12       -22.8910   19.6770   16.2440 O.2       1 NFG1002     0.0000 
     18 C13       -23.1450   20.5960   18.7110 C.ar      1 NFG1002     0.0000 
     19 C14       -23.2950   21.0600   20.0100 C.ar      1 NFG1002     0.0000 
     20 N2        -22.5010   22.0860   20.3970 N.pl3     1 NFG1002     0.0000 
     21 O21       -21.6920   22.5640   19.6080 O.2       1 NFG1002     0.0000 
     22 O22       -22.5870   22.5370   21.5270 O.2       1 NFG1002     0.0000 
     23 C15       -24.2360   20.4740   20.8630 C.ar      1 NFG1002     0.0000 
     24 C16       -25.0190   19.4200   20.3990 C.ar      1 NFG1002     0.0000 
     25 H         -26.6486   17.2251   20.1923 H         1 NFG1002     0.0000 
     26 H         -27.7389   17.5735   17.8081 H         1 NFG1002     0.0000 
     27 H         -27.5381   14.5920   17.7631 H         1 NFG1002     0.0000 
     28 H         -25.5354   16.6249   16.8735 H         1 NFG1002     0.0000 
     29 H         -25.3825   13.9516   18.2632 H         1 NFG1002     0.0000 
     30 H         -23.3382   14.5297   17.0275 H         1 NFG1002     0.0000 
     31 H         -23.1257   14.4394   18.7844 H         1 NFG1002     0.0000 
     32 H         -22.4471   21.0353   18.0879 H         1 NFG1002     0.0000 
     33 H         -24.3461   20.8190   21.8197 H         1 NFG1002     0.0000 
     34 H         -25.7136   18.9828   21.0155 H         1 NFG1002     0.0000 
     35 H         -27.9663   15.0399   15.5443 H         1 NFG1002     0.0000 
     36 H         -24.5571   15.1294   15.5496 H         1 NFG1002     0.0000 
     37 H         -23.9054   16.9412   17.8108 H         1 NFG1002     0.0000 
@<TRIPOS>BOND
     1    2    1 1    
     2    3    1 1    
     3   12    1 1    
     4   25    1 1    
     5   13    2 1    
     6    4    3 1    
     7    5    3 1    
     8   26    3 1    
     9    6    5 1    
    10    7    5 1    
    11   27    5 1    
    12   35    6 1    
    13    8    7 1    
    14    9    7 1    
    15   28    7 1    
    16   36    8 1    
    17   10    9 1    
    18   12    9 1    
    19   29    9 1    
    20   11   10 1    
    21   30   10 1    
    22   31   10 1    
    23   37   11 1    
    24   14   13 ar   
    25   24   13 ar   
    26   15   14 1    
    27   18   14 ar   
    28   16   15 2    
    29   17   15 2    
    30   19   18 ar   
    31   32   18 1    
    32   20   19 1    
    33   23   19 ar   
    34   21   20 2    
    35   22   20 2    
    36   24   23 ar   
    37   33   23 1    
    38   34   24 1    
@<TRIPOS>SUBSTRUCTURE
     1 NFG1002     1 GROUP   
@<TRIPOS>SET

