#    Name: 2eud_GCQ_1_INTS_M
#    Modification time : Tue Mar 25 11:31:31 2014

@<TRIPOS>MOLECULE
2eud_GCQ_1_INTS_M
   49     0     6     0     0
SMALL
NO_CHARGES


@<TRIPOS>ATOM
      1 N          27.8370   54.5125   18.3515 N.am      1 SEC2        0.0000 
      2 N          27.5560   53.4970   17.4390 N.am      5 SEL2        0.0000 
      3 N          28.1180   55.5280   19.2640 N.am      3 SEP2        0.0000 
      4 N          27.6440   54.9000   16.9800 N.am      1 SEC2        0.0000 
      5 N          27.7320   56.3030   16.5210 N.am      3 SEP2        0.0000 
      6 N          28.9935   52.9595   13.7475 N.am      1 SEC2        0.0000 
      7 N          28.9400   52.8710   15.3960 N.am      5 SEL2        0.0000 
      8 N          29.0470   53.0480   12.0990 N.am      3 SEP2        0.0000 
      9 N          29.9815   53.3790   14.7300 N.am      1 SEC2        0.0000 
     10 N          31.0230   53.8870   14.0640 N.am      3 SEP2        0.0000 
     11 N          30.1625   52.4665   15.8045 N.am      1 SEC2        0.0000 
     12 N          31.3850   52.0620   16.2130 N.am      3 SEP2        0.0000 
     13 N          27.5505   48.7610   15.2255 N.am      1 SEC2        0.0000 
     14 N          26.5610   49.1410   15.9570 N.am      5 SEL2        0.0000 
     15 N          28.5400   48.3810   14.4940 N.am      3 SEP2        0.0000 
     16 N          27.2240   50.4550   13.2230 N.am      1 SEC2        0.0000 
     17 N          25.9070   50.6810   13.9820 N.am      5 SEL2        0.0000 
     18 N          28.5410   50.2290   12.4640 N.am      3 SEP2        0.0000 
     19 CA         24.4760   48.2170   15.6770 C.3       2 GLC5        0.0000 
     20 CA         23.5400   50.1890   16.1730 C.3       6 GLL5        0.0000 
     21 CA         25.4120   46.2450   15.1810 C.3       4 GLP5        0.0000 
     22 CA         22.8630   51.3795   19.0430 C.3       2 GLC5        0.0000 
     23 CA         22.3930   50.8550   16.9250 C.3       6 GLL5        0.0000 
     24 CA         23.3330   51.9040   21.1610 C.3       4 GLP5        0.0000 
     25 CA         18.2180   52.7540   17.6615 C.3       2 GLC5        0.0000 
     26 CA         19.5060   52.6980   16.7860 C.3       6 GLL5        0.0000 
     27 CA         16.9300   52.8100   18.5370 C.3       4 GLP5        0.0000 
     28 CA         22.5905   52.5255   19.2410 C.3       2 GLC5        0.0000 
     29 CA         21.8480   53.1470   17.3210 C.3       6 GLL5        0.0000 
     30 N          20.0645   56.2775   18.9935 N.am      1 SEC2        0.0000 
     31 N          20.8740   55.7470   17.8680 N.am      5 SEL2        0.0000 
     32 N          19.2550   56.8080   20.1190 N.am      3 SEP2        0.0000 
     33 CA         20.9445   54.6335   13.9555 C.3       2 GLC5        0.0000 
     34 CA         20.8370   53.2540   15.1410 C.3       6 GLL5        0.0000 
     35 CA         21.0520   56.0130   12.7700 C.3       4 GLP5        0.0000 
     36 CA         20.8395   50.4190   18.0245 C.3       2 GLC5        0.0000 
     37 CA         19.8870   49.8390   19.5520 C.3       4 GLP5        0.0000 
     38 CA         21.7114   49.3597   15.5990 C.3       2 GLC5        0.0000 
     39 CA         21.1910   51.1430   16.0690 C.3       6 GLL5        0.0000 
     40 CA         21.3440   47.8870   14.8890 C.3       4 GLP5        0.0000 
     41 CA         20.4490   51.3690   18.2413 C.3       2 GLC5        0.0000 
     42 CA         20.8420   52.6040   16.2940 C.3       6 GLL5        0.0000 
     43 CA         25.4770   55.9725   16.6800 C.3       2 GLC5        0.0000 
     44 CA         23.6510   54.4220   16.0190 C.3       6 GLL5        0.0000 
     45 CA         27.0100   56.9260   17.5740 C.3       4 GLP5        0.0000 
     46 CA         22.4980   55.5160   14.2780 C.3       2 GLC5        0.0000 
     47 CA         24.2370   55.6160   15.5530 C.3       6 GLL5        0.0000 
     48 CA         18.9986   51.7399   15.4072 C.3       2 GLC5        0.0000 
     49 CA         17.4480   50.7100   15.0020 C.3       4 GLP5        0.0000 
@<TRIPOS>BOND
@<TRIPOS>SUBSTRUCTURE
     1 SEC2        1 GROUP        1 X    SEC  0     ROOT SEC X 2
     2 GLC5       19 GROUP        1 X    GLC  0     **** GLC X 6
     3 SEP2        3 GROUP        1 Y    SEP  0     ROOT SEP Y 9
     4 GLP5       21 GROUP        1 Y    GLP  0     **** GLP Y 13
     5 SEL2        2 GROUP        1 Z    SEL  0     ROOT SEL Z 16
     6 GLL5       20 GROUP        1 Z    GLL  0     **** GLL Z 20
@<TRIPOS>SET

