#    Name: 2wbd_RO5_1_INTS_M
#    Modification time : Tue Mar 25 03:58:33 2014

@<TRIPOS>MOLECULE
2wbd_RO5_1_INTS_M
   61     0     9     0     0
SMALL
NO_CHARGES


@<TRIPOS>ATOM
      1 CA         32.9255   11.8135  -22.1730 C.3       3 GLC5        0.0000 
      2 CA         34.1510   13.5390  -22.0780 C.3       9 GLL5        0.0000 
      3 CA         31.7000   10.0880  -22.2680 C.3       6 GLP5        0.0000 
      4 N          38.3750   10.6860  -20.1255 N.am      2 SEC2        0.0000 
      5 N          39.0970   10.5930  -21.2920 N.am      8 SEL2        0.0000 
      6 N          37.6530   10.7790  -18.9590 N.am      5 SEP2        0.0000 
      7 O          40.8360   10.7505  -24.2270 O.2       1 ALC1        0.0000 
      8 O          39.8530   10.0460  -23.3190 O.2       7 ALL1        0.0000 
      9 O          41.8190   11.4550  -25.1350 O.2       4 ALP1        0.0000 
     10 N          38.9790   13.2725  -19.1225 N.am      2 SEC2        0.0000 
     11 N          39.0730   13.3430  -20.6190 N.am      8 SEL2        0.0000 
     12 N          38.8850   13.2020  -17.6260 N.am      5 SEP2        0.0000 
     13 N          38.3630   12.0610  -19.7890 N.am      2 SEC2        0.0000 
     14 CA         38.8920    5.2380  -19.3490 C.3       3 GLC5        0.0000 
     15 CA         40.1840    5.0270  -20.5840 C.3       9 GLL5        0.0000 
     16 CA         37.6000    5.4490  -18.1140 C.3       6 GLP5        0.0000 
     17 CA         39.1400    5.2190  -22.5405 C.3       3 GLC5        0.0000 
     18 CA         38.0960    5.4110  -24.4970 C.3       6 GLP5        0.0000 
     19 CA         41.3145    3.9810  -21.7100 C.3       3 GLC5        0.0000 
     20 CA         42.4450    2.9350  -22.8360 C.3       6 GLP5        0.0000 
     21 CA         41.0910    4.0000  -19.1080 C.3       3 GLC5        0.0000 
     22 CA         41.9980    2.9730  -17.6320 C.3       6 GLP5        0.0000 
     23 CA         38.8885    3.2005  -20.5360 C.3       3 GLC5        0.0000 
     24 CA         37.5930    1.3740  -20.4880 C.3       6 GLP5        0.0000 
     25 CA         37.6850    7.3020  -20.6010 C.3       3 GLC5        0.0000 
     26 CA         39.4330    8.0370  -21.4850 C.3       9 GLL5        0.0000 
     27 CA         35.9370    6.5670  -19.7170 C.3       6 GLP5        0.0000 
     28 CA         37.8055    9.0405  -22.1770 C.3       3 GLC5        0.0000 
     29 CA         36.1780   10.0440  -22.8690 C.3       6 GLP5        0.0000 
     30 CA         38.7645    6.7240  -22.9910 C.3       3 GLC5        0.0000 
     31 CA         39.0730    9.3910  -19.7315 C.3       3 GLC5        0.0000 
     32 CA         38.7130   10.7450  -17.9780 C.3       6 GLP5        0.0000 
     33 CA         37.3960   14.7510  -20.4510 C.3       3 GLC5        0.0000 
     34 CA         36.9340   13.4640  -22.0550 C.3       9 GLL5        0.0000 
     35 CA         37.8580   16.0380  -18.8470 C.3       6 GLP5        0.0000 
     36 CA         33.5860   11.7915  -17.9465 C.3       3 GLC5        0.0000 
     37 CA         34.1110   12.9330  -19.6110 C.3       9 GLL5        0.0000 
     38 CA         33.0610   10.6500  -16.2820 C.3       6 GLP5        0.0000 
     39 CA         34.8075   14.7605  -19.5735 C.3       3 GLC5        0.0000 
     40 CA         35.5040   16.5880  -19.5360 C.3       6 GLP5        0.0000 
     41 CA         34.1790   13.6465  -17.5905 C.3       3 GLC5        0.0000 
     42 CA         34.2470   14.3600  -15.5700 C.3       6 GLP5        0.0000 
     43 CA         33.3165   10.2420  -18.8410 C.3       3 GLC5        0.0000 
     44 CA         33.2690   11.7020  -19.7290 C.3       9 GLL5        0.0000 
     45 CA         33.3640    8.7820  -17.9530 C.3       6 GLP5        0.0000 
     46 CA         32.4845   10.8950  -20.9985 C.3       3 GLC5        0.0000 
     47 CA         35.8675   11.9322  -23.0450 C.3       3 GLC5        0.0000 
     48 CA         34.8610   13.8410  -23.2290 C.3       9 GLL5        0.0000 
     49 CA         35.3560   13.3472  -25.0390 C.3       3 GLC5        0.0000 
     50 CA         36.2530   13.8000  -23.2130 C.3       9 GLL5        0.0000 
     51 CA         35.1550   12.8740  -26.8570 C.3       6 GLP5        0.0000 
     52 CA         35.3375   11.7107  -22.1807 C.3       3 GLC5        0.0000 
     53 CA         39.3863    6.0373  -23.3855 C.3       3 GLC5        0.0000 
     54 CA         40.3050    6.5600  -21.7110 C.3       9 GLL5        0.0000 
     55 CA         41.5607    4.7992  -22.5550 C.3       3 GLC5        0.0000 
     56 CA         41.0480    6.7670  -22.8370 C.3       9 GLL5        0.0000 
     57 CA         36.3812   11.6840  -22.1728 C.3       3 GLC5        0.0000 
     58 CA         35.4350   14.9344  -20.3656 C.3       3 GLC5        0.0000 
     59 CA         36.2350   13.1840  -20.8980 C.3       9 GLL5        0.0000 
     60 CA         32.2765   13.6218  -19.2750 C.3       3 GLC5        0.0000 
     61 CA         30.8630   14.9260  -18.8800 C.3       6 GLP5        0.0000 
@<TRIPOS>BOND
@<TRIPOS>SUBSTRUCTURE
     1 ALC1        7 GROUP        1 X    ALC  0     ROOT ALC X 1
     2 SEC2        4 GROUP        1 X    SEC  0     **** SEC X 2
     3 GLC5        1 GROUP        1 X    GLC  0     **** GLC X 6
     4 ALP1        9 GROUP        1 Y    ALP  0     ROOT ALP Y 8
     5 SEP2        6 GROUP        1 Y    SEP  0     **** SEP Y 9
     6 GLP5        3 GROUP        1 Y    GLP  0     **** GLP Y 13
     7 ALL1        8 GROUP        1 Z    ALL  0     ROOT ALL Z 15
     8 SEL2        5 GROUP        1 Z    SEL  0     **** SEL Z 16
     9 GLL5        2 GROUP        1 Z    GLL  0     **** GLL Z 20
@<TRIPOS>SET

