#    Name: 2wbd_RO5_1_ligand
#    Modification time : Tue Mar 25 03:58:33 2014

@<TRIPOS>MOLECULE
2wbd_RO5_1_ligand
   33    34     1     0     0
SMALL
NO_CHARGES


@<TRIPOS>ATOM
      1 C5         34.8610   13.8410  -23.2290 C.ar      1 RO51337     0.0000 
      2 C6         36.2530   13.8000  -23.2130 C.ar      1 RO51337     0.0000 
      3 C10        34.1510   13.5390  -22.0780 C.ar      1 RO51337     0.0000 
      4 C1         39.3890   10.9120  -22.4290 C.2       1 RO51337     0.0000 
      5 O1         39.0970   10.5930  -21.2920 O.2       1 RO51337     0.0000 
      6 N1         39.8530   10.0460  -23.3190 N.am      1 RO51337     0.0000 
      7 C4         40.0740    8.8140  -22.9060 C.2       1 RO51337     0.0000 
      8 O3         39.3080   14.5630  -22.5550 O.2       1 RO51337     0.0000 
      9 C15        41.0480    6.7670  -22.8370 C.2       1 RO51337     0.0000 
     10 C14        40.3050    6.5600  -21.7110 C.2       1 RO51337     0.0000 
     11 C12        36.2350   13.1840  -20.8980 C.ar      1 RO51337     0.0000 
     12 O2         39.0730   13.3430  -20.6190 O.2       1 RO51337     0.0000 
     13 BR2        40.1840    5.0270  -20.5840 Br        1 RO51337     0.0000 
     14 S16        39.4330    8.0370  -21.4850 S.3       1 RO51337     0.0000 
     15 N17        40.9340    7.9280  -23.4190 N.2       1 RO51337     0.0000 
     16 N5         39.2490   12.1390  -22.8640 N.am      1 RO51337     0.0000 
     17 S2         38.6890   13.4090  -21.9990 S.o2      1 RO51337     0.0000 
     18 C11        36.9340   13.4640  -22.0550 C.ar      1 RO51337     0.0000 
     19 C8         34.8430   13.2160  -20.9070 C.ar      1 RO51337     0.0000 
     20 C20        34.1110   12.9330  -19.6110 C.3       1 RO51337     0.0000 
     21 C21        33.2690   11.7020  -19.7290 C.3       1 RO51337     0.0000 
     22 H          34.3656   14.0944  -24.0921 H         1 RO51337     0.0000 
     23 H          36.7786   14.0226  -24.0737 H         1 RO51337     0.0000 
     24 H          33.1267   13.5508  -22.0794 H         1 RO51337     0.0000 
     25 H          40.0330   10.3291  -24.2965 H         1 RO51337     0.0000 
     26 H          41.6623    6.0207  -23.1875 H         1 RO51337     0.0000 
     27 H          36.7352   12.9522  -20.0305 H         1 RO51337     0.0000 
     28 H          39.4841   12.4631  -23.8409 H         1 RO51337     0.0000 
     29 H          33.4796   13.7916  -19.3628 H         1 RO51337     0.0000 
     30 H          34.8433   12.8056  -18.8078 H         1 RO51337     0.0000 
     31 H          33.8187   10.8955  -19.9464 H         1 RO51337     0.0000 
     32 H          32.7804   11.5034  -18.8794 H         1 RO51337     0.0000 
     33 H          32.5808   11.7904  -20.4491 H         1 RO51337     0.0000 
@<TRIPOS>BOND
     1    2    1 ar   
     2    3    1 ar   
     3   22    1 1    
     4   18    2 ar   
     5   23    2 1    
     6   19    3 ar   
     7   24    3 1    
     8    5    4 2    
     9    6    4 am   
    10   16    4 am   
    11    7    6 1    
    12   25    6 1    
    13   14    7 1    
    14   15    7 2    
    15   17    8 2    
    16   10    9 2    
    17   15    9 1    
    18   26    9 1    
    19   13   10 1    
    20   14   10 1    
    21   18   11 ar   
    22   19   11 ar   
    23   27   11 1    
    24   17   12 2    
    25   17   16 1    
    26   28   16 1    
    27   18   17 1    
    28   20   19 1    
    29   21   20 1    
    30   29   20 1    
    31   30   20 1    
    32   31   21 1    
    33   32   21 1    
    34   33   21 1    
@<TRIPOS>SUBSTRUCTURE
     1 RO51337     1 GROUP   
@<TRIPOS>SET

