#    Name: 3prz_3RZ_1_INTS_M
#    Modification time : Tue Mar 25 08:25:15 2014

@<TRIPOS>MOLECULE
3prz_3RZ_1_INTS_M
   50     0     9     0     0
SMALL
NO_CHARGES


@<TRIPOS>ATOM
      1 CA         44.2150   10.3675   27.3975 C.3       3 GLC5        0.0000 
      2 CA         45.0840   11.6540   28.1400 C.3       9 GLL5        0.0000 
      3 CA         43.3460    9.0810   26.6550 C.3       6 GLP5        0.0000 
      4 CA         46.4370   11.0310   26.7490 C.3       3 GLC5        0.0000 
      5 CA         47.7900   10.4080   25.3580 C.3       6 GLP5        0.0000 
      6 CA         45.3840   12.7335   26.3765 C.3       3 GLC5        0.0000 
      7 CA         45.6840   13.8130   24.6130 C.3       6 GLP5        0.0000 
      8 N          48.2205   11.7760   28.3280 N.am      2 SEC2        0.0000 
      9 N          47.0800   12.8710   28.6430 N.am      8 SEL2        0.0000 
     10 N          49.3610   10.6810   28.0130 N.am      5 SEP2        0.0000 
     11 CA         49.3115   12.8625   30.0350 C.3       3 GLC5        0.0000 
     12 CA         47.6880   13.8510   29.3170 C.3       9 GLL5        0.0000 
     13 CA         50.9350   11.8740   30.7530 C.3       6 GLP5        0.0000 
     14 O          50.0455   13.4145   28.2235 O.2       1 ALC1        0.0000 
     15 O          49.0510   14.0620   29.0950 O.2       7 ALL1        0.0000 
     16 O          51.0400   12.7670   27.3520 O.2       4 ALP1        0.0000 
     17 CA         43.6130   16.1875   29.9165 C.3       3 GLC5        0.0000 
     18 CA         44.9730   15.2460   31.2890 C.3       9 GLL5        0.0000 
     19 CA         42.2530   17.1290   28.5440 C.3       6 GLP5        0.0000 
     20 CA         45.9505   14.6480   28.0735 C.3       3 GLC5        0.0000 
     21 CA         45.7740   12.7280   28.8800 C.3       9 GLL5        0.0000 
     22 CA         46.1270   16.5680   27.2670 C.3       6 GLP5        0.0000 
     23 CA         41.1085   13.9005   28.8725 C.3       3 GLC5        0.0000 
     24 CA         40.8200   12.7810   30.4790 C.3       9 GLL5        0.0000 
     25 CA         41.3970   15.0200   27.2660 C.3       6 GLP5        0.0000 
     26 CA         38.6785   11.1825   32.4895 C.3       3 GLC5        0.0000 
     27 CA         39.6420   12.6310   31.1640 C.3       9 GLL5        0.0000 
     28 CA         37.7150    9.7340   33.8150 C.3       6 GLP5        0.0000 
     29 O          38.9035   13.6785   33.3280 O.2       1 ALC1        0.0000 
     30 O          39.7550   13.4130   32.2740 O.2       7 ALL1        0.0000 
     31 O          38.0520   13.9440   34.3820 O.2       4 ALP1        0.0000 
     32 CA         44.5575   11.0745   29.9015 C.3       3 GLC5        0.0000 
     33 CA         43.6860    9.9580   31.2930 C.3       6 GLP5        0.0000 
     34 CA         44.0850   13.3345   27.6330 C.3       3 GLC5        0.0000 
     35 CA         42.7410   14.4780   26.7560 C.3       6 GLP5        0.0000 
     36 CA         46.7355   15.4093   28.5153 C.3       3 GLC5        0.0000 
     37 CA         46.3317   13.7523   31.9375 C.3       3 GLC5        0.0000 
     38 CA         47.0000   14.6500   30.2100 C.3       9 GLL5        0.0000 
     39 CA         46.3430   12.9680   33.5750 C.3       6 GLP5        0.0000 
     40 CA         45.7170   15.7012   29.0532 C.3       3 GLC5        0.0000 
     41 CA         45.6410   14.4230   30.3900 C.3       9 GLL5        0.0000 
     42 CA         45.8223   14.3585   32.6028 C.3       3 GLC5        0.0000 
     43 CA         46.8290   14.5150   32.4533 C.3       3 GLC5        0.0000 
     44 CA         46.9750   16.4670   31.7720 C.3       9 GLL5        0.0000 
     45 CA         47.4115   16.8340   29.4887 C.3       3 GLC5        0.0000 
     46 CA         47.5080   17.6060   27.6460 C.3       6 GLP5        0.0000 
     47 CA         40.9885   11.8215   32.2212 C.3       3 GLC5        0.0000 
     48 CA         41.7460   10.9370   33.6210 C.3       6 GLP5        0.0000 
     49 CA         38.9550   13.6485   30.0953 C.3       3 GLC5        0.0000 
     50 CA         37.6790   14.5910   29.3690 C.3       6 GLP5        0.0000 
@<TRIPOS>BOND
@<TRIPOS>SUBSTRUCTURE
     1 ALC1       14 GROUP        1 X    ALC  0     ROOT ALC X 1
     2 SEC2        8 GROUP        1 X    SEC  0     **** SEC X 2
     3 GLC5        1 GROUP        1 X    GLC  0     **** GLC X 6
     4 ALP1       16 GROUP        1 Y    ALP  0     ROOT ALP Y 8
     5 SEP2       10 GROUP        1 Y    SEP  0     **** SEP Y 9
     6 GLP5        3 GROUP        1 Y    GLP  0     **** GLP Y 13
     7 ALL1       15 GROUP        1 Z    ALL  0     ROOT ALL Z 15
     8 SEL2        9 GROUP        1 Z    SEL  0     **** SEL Z 16
     9 GLL5        2 GROUP        1 Z    GLL  0     **** GLL Z 20
@<TRIPOS>SET

