#    Name: 3prz_3RZ_1_ligand
#    Modification time : Tue Mar 25 08:25:15 2014

@<TRIPOS>MOLECULE
3prz_3RZ_1_ligand
   32    34     1     0     0
SMALL
NO_CHARGES


@<TRIPOS>ATOM
      1 C1         45.0840   11.6540   28.1400 C.3       1 3RZ1        0.0000 
      2 N2         47.0800   12.8710   28.6430 N.ar      1 3RZ1        0.0000 
      3 C3         47.6880   13.8510   29.3170 C.ar      1 3RZ1        0.0000 
      4 N4         49.0510   14.0620   29.0950 N.pl3     1 3RZ1        0.0000 
      5 C5         47.0000   14.6500   30.2100 C.ar      1 3RZ1        0.0000 
      6 C6         45.6410   14.4230   30.3900 C.ar      1 3RZ1        0.0000 
      7 C7         44.9730   15.2460   31.2890 C.ar      1 3RZ1        0.0000 
      8 N8         45.0210   13.4490   29.7120 N.ar      1 3RZ1        0.0000 
      9 C9         45.7740   12.7280   28.8800 C.ar      1 3RZ1        0.0000 
     10 C10        46.9750   16.4670   31.7720 C.ar      1 3RZ1        0.0000 
     11 C11        45.6300   16.2520   31.9720 C.ar      1 3RZ1        0.0000 
     12 C12        47.6550   15.6570   30.8910 C.ar      1 3RZ1        0.0000 
     13 C13        43.5350   15.0910   31.5970 C.2       1 3RZ1        0.0000 
     14 O14        43.0290   15.8360   32.4270 O.2       1 3RZ1        0.0000 
     15 N15        42.8810   14.0770   30.9200 N.am      1 3RZ1        0.0000 
     16 C16        41.5970   13.6710   31.2610 C.2       1 3RZ1        0.0000 
     17 C17        40.8200   12.7810   30.4790 C.2       1 3RZ1        0.0000 
     18 C18        39.6420   12.6310   31.1640 C.2       1 3RZ1        0.0000 
     19 N19        39.7550   13.4130   32.2740 N.pl3     1 3RZ1        0.0000 
     20 N20        40.9330   14.0460   32.3640 N.2       1 3RZ1        0.0000 
     21 H          49.4738   14.7990   29.6223 H         1 3RZ1        0.0000 
     22 H          49.4868   13.4579   28.4278 H         1 3RZ1        0.0000 
     23 H          47.4624   17.2185   32.2714 H         1 3RZ1        0.0000 
     24 H          45.1054   16.8461   32.6375 H         1 3RZ1        0.0000 
     25 H          48.6699   15.8030   30.7357 H         1 3RZ1        0.0000 
     26 H          43.3658   13.6004   30.1274 H         1 3RZ1        0.0000 
     27 H          41.0794   12.3954   29.6752 H         1 3RZ1        0.0000 
     28 H          38.9077   12.0956   30.9141 H         1 3RZ1        0.0000 
     29 H          39.0244   13.4985   32.9482 H         1 3RZ1        0.0000 
     30 H          45.1450   11.7862   27.1507 H         1 3RZ1        0.0000 
     31 H          45.4741   10.7552   28.3402 H         1 3RZ1        0.0000 
     32 H          44.1119   11.6096   28.3704 H         1 3RZ1        0.0000 
@<TRIPOS>BOND
     1    9    1 1    
     2   30    1 1    
     3   31    1 1    
     4   32    1 1    
     5    3    2 ar   
     6    9    2 ar   
     7    4    3 1    
     8    5    3 ar   
     9   21    4 1    
    10   22    4 1    
    11    6    5 ar   
    12   12    5 ar   
    13    7    6 ar   
    14    8    6 ar   
    15   11    7 ar   
    16   13    7 1    
    17    9    8 ar   
    18   11   10 ar   
    19   12   10 ar   
    20   23   10 1    
    21   24   11 1    
    22   25   12 1    
    23   14   13 2    
    24   15   13 am   
    25   16   15 1    
    26   26   15 1    
    27   17   16 1    
    28   20   16 2    
    29   18   17 2    
    30   27   17 1    
    31   19   18 1    
    32   28   18 1    
    33   20   19 1    
    34   29   19 1    
@<TRIPOS>SUBSTRUCTURE
     1 3RZ1        1 GROUP   
@<TRIPOS>SET

