#    Name: 3hbu_ALA_LYS_ALA_ALA_1_INTS_M
#    Modification time : Tue Mar 25 13:54:58 2014

@<TRIPOS>MOLECULE
3hbu_ALA_LYS_ALA_ALA_1_INTS_M
   48     0     9     0     0
SMALL
NO_CHARGES


@<TRIPOS>ATOM
      1 O          36.9160   54.6785   55.3680 O.2       1 ALC1        0.0000 
      2 O          35.5830   55.6580   55.1550 O.2       7 ALL1        0.0000 
      3 O          38.2490   53.6990   55.5810 O.2       4 ALP1        0.0000 
      4 N          37.2210   53.8100   52.5790 N.am      2 SEC2        0.0000 
      5 N          35.6890   54.2590   52.7110 N.am      8 SEL2        0.0000 
      6 N          38.7530   53.3610   52.4470 N.am      5 SEP2        0.0000 
      7 CA         34.1865   52.1380   53.3320 C.3       3 GLC5        0.0000 
      8 CA         33.2870   53.1880   51.7670 C.3       9 GLL5        0.0000 
      9 CA         35.0860   51.0880   54.8970 C.3       6 GLP5        0.0000 
     10 N          31.1530   54.4250   49.0810 N.am      2 SEC2        0.0000 
     11 N          32.1070   54.3840   50.0370 N.am      8 SEL2        0.0000 
     12 N          30.1990   54.4660   48.1250 N.am      5 SEP2        0.0000 
     13 CA         33.0060   51.4580   53.7730 C.3       3 GLC5        0.0000 
     14 CA         32.2140   52.2700   52.3790 C.3       9 GLL5        0.0000 
     15 CA         33.7980   50.6460   55.1670 C.3       6 GLP5        0.0000 
     16 CA         32.1775   49.4675   50.3390 C.3       3 GLC5        0.0000 
     17 CA         31.9950   50.9300   51.6940 C.3       9 GLL5        0.0000 
     18 CA         32.3600   48.0050   48.9840 C.3       6 GLP5        0.0000 
     19 CA         31.6130   48.5480   51.7960 C.3       3 GLC5        0.0000 
     20 CA         30.7730   50.2470   52.3540 C.3       9 GLL5        0.0000 
     21 CA         32.4530   46.8490   51.2380 C.3       6 GLP5        0.0000 
     22 CA         29.9930   47.8950   53.1480 C.3       3 GLC5        0.0000 
     23 CA         30.1210   49.2650   51.3930 C.3       9 GLL5        0.0000 
     24 CA         29.8650   46.5250   54.9030 C.3       6 GLP5        0.0000 
     25 CA         31.0045   48.1085   50.6815 C.3       3 GLC5        0.0000 
     26 CA         31.8880   46.9520   49.9700 C.3       6 GLP5        0.0000 
     27 O          34.7385   51.9500   49.9105 O.2       1 ALC1        0.0000 
     28 O          33.6440   52.8720   49.3910 O.2       7 ALL1        0.0000 
     29 O          35.8330   51.0280   50.4300 O.2       4 ALP1        0.0000 
     30 N          34.4265   49.6775   48.4130 N.am      2 SEC2        0.0000 
     31 N          33.5470   50.6160   47.6600 N.am      8 SEL2        0.0000 
     32 N          35.3060   48.7390   49.1660 N.am      5 SEP2        0.0000 
     33 CA         35.6460   52.6170   46.0920 C.3       3 GLC5        0.0000 
     34 CA         34.5840   53.3700   47.1950 C.3       9 GLL5        0.0000 
     35 CA         36.7080   51.8640   44.9890 C.3       6 GLP5        0.0000 
     36 O          30.5770   52.2490   46.8110 O.2       1 ALC1        0.0000 
     37 O          31.5960   51.5470   47.0190 O.2       7 ALL1        0.0000 
     38 O          29.5580   52.9510   46.6030 O.2       4 ALP1        0.0000 
     39 CA         36.1215   56.7145   52.6030 C.3       3 GLC5        0.0000 
     40 CA         34.5940   55.8860   54.1070 C.3       9 GLL5        0.0000 
     41 CA         37.5380   56.8650   51.4300 C.3       6 GLP5        0.0000 
     42 CA         32.4150   49.9693   53.4580 C.3       3 GLC5        0.0000 
     43 CA         33.4460   49.3500   54.8920 C.3       6 GLP5        0.0000 
     44 CA         31.3070   49.1188   48.0155 C.3       3 GLC5        0.0000 
     45 CA         29.5780   50.1860   47.4020 C.3       9 GLL5        0.0000 
     46 CA         28.7495   50.1397   45.8460 C.3       3 GLC5        0.0000 
     47 CA         30.9300   50.2790   46.6920 C.3       9 GLL5        0.0000 
     48 CA         27.2450   50.0470   44.6450 C.3       6 GLP5        0.0000 
@<TRIPOS>BOND
@<TRIPOS>SUBSTRUCTURE
     1 ALC1        1 GROUP        1 X    ALC  0     ROOT ALC X 1
     2 SEC2        4 GROUP        1 X    SEC  0     **** SEC X 2
     3 GLC5        7 GROUP        1 X    GLC  0     **** GLC X 6
     4 ALP1        3 GROUP        1 Y    ALP  0     ROOT ALP Y 8
     5 SEP2        6 GROUP        1 Y    SEP  0     **** SEP Y 9
     6 GLP5        9 GROUP        1 Y    GLP  0     **** GLP Y 13
     7 ALL1        2 GROUP        1 Z    ALL  0     ROOT ALL Z 15
     8 SEL2        5 GROUP        1 Z    SEL  0     **** SEL Z 16
     9 GLL5        8 GROUP        1 Z    GLL  0     **** GLL Z 20
@<TRIPOS>SET

