#    Name: 3hbu_ALA_LYS_ALA_ALA_1_ligand
#    Modification time : Tue Mar 25 13:54:58 2014

@<TRIPOS>MOLECULE
3hbu_ALA_LYS_ALA_ALA_1_ligand
   55    54     4     0     0
SMALL
NO_CHARGES


@<TRIPOS>ATOM
      1 N          35.5830   55.6580   55.1550 N.4       1 ALA1        0.0000
      2 CA         34.5940   55.8860   54.1070 C.3       1 ALA1        0.0000
      3 C          34.6210   54.7620   53.0720 C.2       1 ALA1        0.0000
      4 O          35.6890   54.2590   52.7110 O.2       1 ALA1        0.0000
      5 CB         34.8160   57.2420   53.4450 C.3       1 ALA1        0.0000
      6 HA         33.5899   55.8990   54.5501 H         1 ALA1        0.0000
      7 H          36.5115   55.6143   54.7863 H         1 ALA1        0.0000
      8 H          35.5735   56.3869   55.8396 H         1 ALA1        0.0000
      9 H          35.4193   54.7987   55.6395 H         1 ALA1        0.0000
     10 HB1        35.7234   57.3086   53.0300 H         1 ALA1        0.0000
     11 HB2        34.1489   57.4152   52.7204 H         1 ALA1        0.0000
     12 HB3        34.7379   57.9928   54.1009 H         1 ALA1        0.0000
     13 N          33.4390   54.3800   52.5960 N.am      2 LYS2        0.0000
     14 CA         33.2870   53.1880   51.7670 C.3       2 LYS2        0.0000
     15 C          32.9520   53.5310   50.3140 C.2       2 LYS2        0.0000
     16 O          32.1070   54.3840   50.0370 O.2       2 LYS2        0.0000
     17 CB         32.2140   52.2700   52.3790 C.3       2 LYS2        0.0000
     18 CG         31.9950   50.9300   51.6940 C.3       2 LYS2        0.0000
     19 CD         30.7730   50.2470   52.3540 C.3       2 LYS2        0.0000
     20 CE         30.1210   49.2650   51.3930 C.3       2 LYS2        0.0000
     21 NZ         28.8970   48.5660   51.9440 N.4       2 LYS2        0.0000
     22 HNCA       32.5624   54.9103   52.7895 H         2 LYS2        0.0000
     23 HA         34.2262   52.6201   51.7679 H         2 LYS2        0.0000
     24 HB2        31.2499   52.8269   52.3998 H         2 LYS2        0.0000
     25 HB3        32.4761   52.0915   53.4465 H         2 LYS2        0.0000
     26 HG2        32.8591   50.3030   51.8273 H         2 LYS2        0.0000
     27 HG3        31.7882   51.0804   50.6489 H         2 LYS2        0.0000
     28 HD2        30.0568   51.0137   52.6379 H         2 LYS2        0.0000
     29 HD3        31.1068   49.7221   53.2454 H         2 LYS2        0.0000
     30 HE2        30.8697   48.5046   51.0980 H         2 LYS2        0.0000
     31 HE3        29.8435   49.8039   50.4666 H         2 LYS2        0.0000
     32 HZ1        29.1097   48.0370   52.7655 H         2 LYS2        0.0000
     33 HZ2        28.1783   49.2157   52.1917 H         2 LYS2        0.0000
     34 HZ3        28.5019   47.9307   51.2804 H         2 LYS2        0.0000
     35 N          33.6440   52.8720   49.3910 N.am      3 ALA3        0.0000
     36 CA         33.3390   52.9710   47.9710 C.3       3 ALA3        0.0000
     37 C          32.8310   51.6030   47.5230 C.2       3 ALA3        0.0000
     38 O          33.5470   50.6160   47.6600 O.2       3 ALA3        0.0000
     39 CB         34.5840   53.3700   47.1950 C.3       3 ALA3        0.0000
     40 H          34.4451   52.2470   49.6384 H         3 ALA3        0.0000
     41 HA         32.5661   53.6923   47.8023 H         3 ALA3        0.0000
     42 HB1        34.9413   54.2544   47.4954 H         3 ALA3        0.0000
     43 HB2        35.3207   52.7030   47.3064 H         3 ALA3        0.0000
     44 HB3        34.4023   53.4450   46.2145 H         3 ALA3        0.0000
     45 N          31.5960   51.5470   47.0190 N.am      4 ALA4        0.0000
     46 CA         30.9300   50.2790   46.6920 C.3       4 ALA4        0.0000
     47 C          30.7500   50.0520   45.1920 C.2       4 ALA4        0.0000
     48 O          31.1740   50.8660   44.3690 O.2       4 ALA4        0.0000
     49 CB         29.5780   50.1860   47.4020 C.3       4 ALA4        0.0000
     50 H          31.0344   52.4076   46.8293 H         4 ALA4        0.0000
     51 HA         31.5409   49.4407   47.0775 H         4 ALA4        0.0000
     52 H          30.2441   49.1565   44.9917 H         4 ALA4        0.0000
     53 HB1        29.6766   50.2319   48.3961 H         4 ALA4        0.0000
     54 HB2        28.9656   50.9296   47.1336 H         4 ALA4        0.0000
     55 HB3        29.1072   49.3288   47.1934 H         4 ALA4        0.0000
@<TRIPOS>BOND
     1    2    1 1
     2    7    1 1
     3    8    1 1
     4    9    1 1
     5    3    2 1
     6    5    2 1
     7    6    2 1
     8    4    3 2
     9   10    5 1
    10   11    5 1
    11   12    5 1
    12   14   13 1
    13   22   13 1
    14   15   14 1
    15   17   14 1
    16   23   14 1
    17   16   15 2
    18   18   17 1
    19   24   17 1
    20   25   17 1
    21   19   18 1
    22   26   18 1
    23   27   18 1
    24   20   19 1
    25   28   19 1
    26   29   19 1
    27   21   20 1
    28   30   20 1
    29   31   20 1
    30   32   21 1
    31   33   21 1
    32   34   21 1
    33   36   35 1
    34   40   35 1
    35   37   36 1
    36   39   36 1
    37   41   36 1
    38   38   37 2
    39   42   39 1
    40   43   39 1
    41   44   39 1
    42   46   45 1
    43   50   45 1
    44   47   46 1
    45   49   46 1
    46   51   46 1
    47   48   47 2
    48   52   47 1
    49   53   49 1
    50   54   49 1
    51   55   49 1
    52   13    3 am
    53   35   15 am
    54   45   37 am
@<TRIPOS>SUBSTRUCTURE
     1 ALA1        1 RESIDUE
     2 LYS2       13 RESIDUE
     3 ALA3       35 RESIDUE
     4 ALA4       45 RESIDUE
@<TRIPOS>SET

