#    Name: 2zdt_46C_1_INTS_M
#    Modification time : Tue Mar 25 10:36:30 2014

@<TRIPOS>MOLECULE
2zdt_46C_1_INTS_M
   84     0     9     0     0
SMALL
NO_CHARGES


@<TRIPOS>ATOM
      1 CA         42.0190    9.3675   35.2320 C.3       3 GLC5        0.0000 
      2 CA         43.3960    9.0110   33.8360 C.3       9 GLL5        0.0000 
      3 CA         40.6420    9.7240   36.6280 C.3       6 GLP5        0.0000 
      4 CA         49.9120    7.5975   27.3785 C.3       3 GLC5        0.0000 
      5 CA         50.9310    8.0740   29.1850 C.3       9 GLL5        0.0000 
      6 CA         48.8930    7.1210   25.5720 C.3       6 GLP5        0.0000 
      7 CA         45.7045    6.4130   29.3155 C.3       3 GLC5        0.0000 
      8 CA         46.8430    5.2350   30.2080 C.3       9 GLL5        0.0000 
      9 CA         44.5660    7.5910   28.4230 C.3       6 GLP5        0.0000 
     10 CA         45.6565   11.0260   35.2000 C.3       3 GLC5        0.0000 
     11 CA         43.7890   11.6300   34.3890 C.3       9 GLL5        0.0000 
     12 CA         47.5240   10.4220   36.0110 C.3       6 GLP5        0.0000 
     13 CA         44.1475   13.6005   35.1120 C.3       3 GLC5        0.0000 
     14 CA         44.5060   15.5710   35.8350 C.3       6 GLP5        0.0000 
     15 CA         42.4410   12.3745   35.3555 C.3       3 GLC5        0.0000 
     16 CA         41.0930   13.1190   36.3220 C.3       6 GLP5        0.0000 
     17 CA         42.9355   11.0330   32.4565 C.3       3 GLC5        0.0000 
     18 CA         42.0820   10.4360   30.5240 C.3       6 GLP5        0.0000 
     19 N          43.8460    4.5020   32.1940 N.am      1 SEC2        0.0000 
     20 N          44.6710    5.5460   31.6800 N.am      7 SEL2        0.0000 
     21 N          43.0210    3.4580   32.7080 N.am      4 SEP2        0.0000 
     22 N          48.3690    8.2865   27.3880 N.am      1 SEC2        0.0000 
     23 N          48.3610    7.2010   28.5990 N.am      7 SEL2        0.0000 
     24 N          48.3770    9.3720   26.1770 N.am      4 SEP2        0.0000 
     25 CA         49.9415    7.7070   32.4020 C.3       3 GLC5        0.0000 
     26 CA         49.8970    7.9610   30.2860 C.3       9 GLL5        0.0000 
     27 CA         49.9860    7.4530   34.5180 C.3       6 GLP5        0.0000 
     28 CA         50.7225    5.0800   32.5650 C.3       3 GLC5        0.0000 
     29 CA         50.3710    3.7490   30.8860 C.3       9 GLL5        0.0000 
     30 CA         51.0740    6.4110   34.2440 C.3       6 GLP5        0.0000 
     31 CA         49.2925    9.0565   33.2790 C.3       3 GLC5        0.0000 
     32 CA         48.5990   10.6600   32.0400 C.3       9 GLL5        0.0000 
     33 NZ         52.5925    1.8925   34.2630 N.4       2 LYC4        0.0000 
     34 NZ         52.4030    2.6410   32.6110 N.4       8 LYL4        0.0000 
     35 NZ         52.7820    1.1440   35.9150 N.4       5 LYP4        0.0000 
     36 NZ         51.8580    1.4175   34.9120 N.4       2 LYC4        0.0000 
     37 NZ         50.9340    1.6910   33.9090 N.4       8 LYL4        0.0000 
     38 N          51.8580    1.4175   34.9120 N.am      1 SEC2        0.0000 
     39 N          50.9340    1.6910   33.9090 N.am      7 SEL2        0.0000 
     40 N          52.7820    1.1440   35.9150 N.am      4 SEP2        0.0000 
     41 CA         46.9657    7.6327   33.3145 C.3       3 GLC5        0.0000 
     42 CA         44.9900    7.7840   32.3550 C.3       9 GLL5        0.0000 
     43 CA         48.5390    6.8870   34.3660 C.3       6 GLP5        0.0000 
     44 CA         44.4582    7.7760   34.7733 C.3       3 GLC5        0.0000 
     45 CA         44.5310    7.7770   36.7760 C.3       6 GLP5        0.0000 
     46 CA         44.9857    6.1310   33.9703 C.3       3 GLC5        0.0000 
     47 CA         43.7810    7.7660   33.1860 C.3       9 GLL5        0.0000 
     48 CA         45.5860    4.4870   35.1700 C.3       6 GLP5        0.0000 
     49 CA         44.9793    7.9848   30.3430 C.3       3 GLC5        0.0000 
     50 CA         43.2338    9.1055   31.6472 C.3       3 GLC5        0.0000 
     51 CA         41.6448    8.1702   32.8150 C.3       3 GLC5        0.0000 
     52 CA         39.7010    7.9520   32.1190 C.3       6 GLP5        0.0000 
     53 CA         44.1700    8.6938   35.2570 C.3       3 GLC5        0.0000 
     54 CA         42.9455   10.0233   32.1310 C.3       3 GLC5        0.0000 
     55 CA         47.8325    7.5875   32.6733 C.3       3 GLC5        0.0000 
     56 CA         46.9530    8.9150   31.2900 C.3       9 GLL5        0.0000 
     57 CA         45.8460    7.9395   29.7017 C.3       3 GLC5        0.0000 
     58 CA         47.2990    7.6610   30.6710 C.3       9 GLL5        0.0000 
     59 CA         45.7692   10.4262   30.3062 C.3       3 GLC5        0.0000 
     60 CA         44.1950   11.3420   29.4700 C.3       6 GLP5        0.0000 
     61 CA         51.5215    9.1883   31.1187 C.3       3 GLC5        0.0000 
     62 CA         52.6290   10.3590   32.5020 C.3       6 GLP5        0.0000 
     63 CA         44.9040   10.4678   30.9810 C.3       3 GLC5        0.0000 
     64 CA         45.4310   10.2140   32.8130 C.3       9 GLL5        0.0000 
     65 CA         46.4174   10.0073   34.3549 C.3       3 GLC5        0.0000 
     66 CA         48.1905    5.5555   32.9530 C.3       3 GLC5        0.0000 
     67 CA         47.7190    3.9370   32.1980 C.3       9 GLL5        0.0000 
     68 CA         46.9195    2.4890   30.7445 C.3       3 GLC5        0.0000 
     69 CA         45.9970    0.7540   29.9490 C.3       6 GLP5        0.0000 
     70 CA         46.9267    4.0430   33.8537 C.3       3 GLC5        0.0000 
     71 CA         50.2202    4.2345   33.8955 C.3       3 GLC5        0.0000 
     72 CA         48.8160    3.2610   32.8770 C.3       9 GLL5        0.0000 
     73 CA         50.9740    5.2510   35.2450 C.3       6 GLP5        0.0000 
     74 CA         47.9387    3.7868   28.8163 C.3       3 GLC5        0.0000 
     75 CA         47.9650    4.5110   30.8820 C.3       9 GLL5        0.0000 
     76 CA         47.5440    2.9190   27.2580 C.3       6 GLP5        0.0000 
     77 CA         50.8080   10.8120   32.1960 C.3       3 GLC5        0.0000 
     78 CA         48.5660   11.9650   33.4580 C.3       3 GLC5        0.0000 
     79 CA         49.3750   11.8700   31.7400 C.3       9 GLL5        0.0000 
     80 CA         48.1450   12.6650   35.0260 C.3       6 GLP5        0.0000 
     81 CA         51.0427   13.1597   31.8402 C.3       3 GLC5        0.0000 
     82 CA         52.7630   14.1320   32.6050 C.3       6 GLP5        0.0000 
     83 CA         46.0978   11.3295   29.4947 C.3       3 GLC5        0.0000 
     84 CA         48.3910   11.9240   29.3760 C.3       9 GLL5        0.0000 
@<TRIPOS>BOND
@<TRIPOS>SUBSTRUCTURE
     1 SEC2       19 GROUP        1 X    SEC  0     ROOT SEC X 2
     2 LYC4       33 GROUP        1 X    LYC  0     **** LYC X 4
     3 GLC5        1 GROUP        1 X    GLC  0     **** GLC X 6
     4 SEP2       21 GROUP        1 Y    SEP  0     ROOT SEP Y 9
     5 LYP4       35 GROUP        1 Y    LYP  0     **** LYP Y 11
     6 GLP5        3 GROUP        1 Y    GLP  0     **** GLP Y 13
     7 SEL2       20 GROUP        1 Z    SEL  0     ROOT SEL Z 16
     8 LYL4       34 GROUP        1 Z    LYL  0     **** LYL Z 18
     9 GLL5        2 GROUP        1 Z    GLL  0     **** GLL Z 20
@<TRIPOS>SET

