#    Name: 2zdt_46C_1_ligand
#    Modification time : Tue Mar 25 10:36:30 2014

@<TRIPOS>MOLECULE
2zdt_46C_1_ligand
   51    54     1     0     0
SMALL
NO_CHARGES


@<TRIPOS>ATOM
      1 C4         44.9900    7.7840   32.3550 C.ar      1 46C901      0.0000 
      2 C5         43.7810    7.7660   33.1860 C.ar      1 46C901      0.0000 
      3 C6         43.3960    9.0110   33.8360 C.ar      1 46C901      0.0000 
      4 C10        46.9530    8.9150   31.2900 C.2       1 46C901      0.0000 
      5 N12        46.4940    6.5070   30.8710 N.am      1 46C901      0.0000 
      6 C13        45.3870    6.5400   31.6110 C.2       1 46C901      0.0000 
      7 C15        47.7340   10.1060   30.9950 C.ar      1 46C901      0.0000 
      8 C17        48.5160    7.5860   29.7570 C.2       1 46C901      0.0000 
      9 C20        50.9310    8.0740   29.1850 C.3       1 46C901      0.0000 
     10 C26        46.8430    5.2350   30.2080 C.3       1 46C901      0.0000 
     11 C1         44.2220   10.2100   33.6400 C.ar      1 46C901      0.0000 
     12 C2         45.4310   10.2140   32.8130 C.ar      1 46C901      0.0000 
     13 C3         45.7950    8.9730   32.1710 C.ar      1 46C901      0.0000 
     14 C11        47.2990    7.6610   30.6710 C.2       1 46C901      0.0000 
     15 CL14       43.7890   11.6300   34.3890 Cl        1 46C901      0.0000 
     16 O16        44.6710    5.5460   31.6800 O.2       1 46C901      0.0000 
     17 O18        48.3610    7.2010   28.5990 O.2       1 46C901      0.0000 
     18 C19        49.8970    7.9610   30.2860 C.3       1 46C901      0.0000 
     19 C27        47.9650    4.5110   30.8820 C.ar      1 46C901      0.0000 
     20 C30        47.7190    3.9370   32.1980 C.ar      1 46C901      0.0000 
     21 C31        48.8160    3.2610   32.8770 C.ar      1 46C901      0.0000 
     22 C32        50.1170    3.1750   32.2150 C.ar      1 46C901      0.0000 
     23 C33        50.3710    3.7490   30.8860 C.ar      1 46C901      0.0000 
     24 C34        49.2630    4.4360   30.2040 C.ar      1 46C901      0.0000 
     25 C39        48.5990   10.6600   32.0400 C.ar      1 46C901      0.0000 
     26 C40        49.3750   11.8700   31.7400 C.ar      1 46C901      0.0000 
     27 C41        49.2700   12.5050   30.4110 C.ar      1 46C901      0.0000 
     28 C42        48.3910   11.9240   29.3760 C.ar      1 46C901      0.0000 
     29 C43        47.6100   10.7100   29.6630 C.ar      1 46C901      0.0000 
     30 C49        51.2370    2.4550   32.9530 C.2       1 46C901      0.0000 
     31 O50        52.4030    2.6410   32.6110 O.co2     1 46C901      0.0000 
     32 O51        50.9340    1.6910   33.9090 O.co2     1 46C901      0.0000 
     33 H          43.2534    6.9410   33.2968 H         1 46C901      0.0000 
     34 H          42.5796    9.0552   34.4104 H         1 46C901      0.0000 
     35 H          47.1216    5.4276   29.1534 H         1 46C901      0.0000 
     36 H          45.9551    4.5735   30.1779 H         1 46C901      0.0000 
     37 H          45.9673   11.0350   32.7054 H         1 46C901      0.0000 
     38 H          50.2188    7.2015   31.0108 H         1 46C901      0.0000 
     39 H          49.8262    8.9187   30.8184 H         1 46C901      0.0000 
     40 H          46.8219    4.0052   32.6234 H         1 46C901      0.0000 
     41 H          48.6841    2.8608   33.7825 H         1 46C901      0.0000 
     42 H          51.2602    3.6760   30.4621 H         1 46C901      0.0000 
     43 H          49.3931    4.8377   29.3078 H         1 46C901      0.0000 
     44 H          48.6600   10.2281   32.9311 H         1 46C901      0.0000 
     45 H          49.9767   12.2675   32.4346 H         1 46C901      0.0000 
     46 H          49.7967   13.3328   30.2105 H         1 46C901      0.0000 
     47 H          48.3277   12.3597   28.4757 H         1 46C901      0.0000 
     48 H          47.0192   10.3141   28.9770 H         1 46C901      0.0000 
     49 H          51.8305    8.3226   29.5443 H         1 46C901      0.0000 
     50 H          51.0412    7.2126   28.6892 H         1 46C901      0.0000 
     51 H          50.6819    8.7700   28.5115 H         1 46C901      0.0000 
@<TRIPOS>BOND
     1    2    1 ar   
     2    6    1 1    
     3   13    1 ar   
     4    3    2 ar   
     5   33    2 1    
     6   11    3 ar   
     7   34    3 1    
     8    7    4 1    
     9   13    4 1    
    10   14    4 2    
    11    6    5 am   
    12   10    5 1    
    13   14    5 1    
    14   16    6 2    
    15   25    7 ar   
    16   29    7 ar   
    17   14    8 1    
    18   17    8 2    
    19   18    8 1    
    20   18    9 1    
    21   49    9 1    
    22   50    9 1    
    23   51    9 1    
    24   19   10 1    
    25   35   10 1    
    26   36   10 1    
    27   12   11 ar   
    28   15   11 1    
    29   13   12 ar   
    30   37   12 1    
    31   38   18 1    
    32   39   18 1    
    33   20   19 ar   
    34   24   19 ar   
    35   21   20 ar   
    36   40   20 1    
    37   22   21 ar   
    38   41   21 1    
    39   23   22 ar   
    40   30   22 1    
    41   24   23 ar   
    42   42   23 1    
    43   43   24 1    
    44   26   25 ar   
    45   44   25 1    
    46   27   26 ar   
    47   45   26 1    
    48   28   27 ar   
    49   46   27 1    
    50   29   28 ar   
    51   47   28 1    
    52   48   29 1    
    53   31   30 ar   
    54   32   30 ar   
@<TRIPOS>SUBSTRUCTURE
     1 46C901      1 GROUP   
@<TRIPOS>SET

