#    Name: 3ncq_ATP_3_INTS_M
#    Modification time : Tue Mar 25 01:16:15 2014

@<TRIPOS>MOLECULE
3ncq_ATP_3_INTS_M
   91     0    15     0     0
SMALL
NO_CHARGES


@<TRIPOS>ATOM
      1 NZ         24.5360   37.3155   54.0960 N.4       3 LYC4        0.0000 
      2 NZ         23.9880   36.8440   52.9940 N.4      13 LYL4        0.0000 
      3 NZ         24.1890   38.0460   56.1690 N.4       8 LYP4        0.0000 
      4 N          24.5360   37.3155   54.0960 N.am      2 SEC2        0.0000 
      5 N          23.9880   36.8440   52.9940 N.am     12 SEL2        0.0000 
      6 N          25.0840   37.7870   55.1980 N.am      7 SEP2        0.0000 
      7 N          23.4375   37.2975   54.4795 N.am      2 SEC2        0.0000 
      8 N          22.8870   37.7510   55.9650 N.am      7 SEP2        0.0000 
      9 NZ         21.8105   34.6230   53.3125 N.4       3 LYC4        0.0000 
     10 NZ         22.2120   35.5890   52.1710 N.4      13 LYL4        0.0000 
     11 NZ         20.0790   33.6790   54.5110 N.4       8 LYP4        0.0000 
     12 Zn         22.1880   35.0395   51.3185 Zn        4 ZIC7        0.0000 
     13 Zn         22.2120   35.5890   52.1710 Zn       14 ZIL7        0.0000 
     14 Zn         22.1640   34.4900   50.4660 Zn        9 ZIP7        0.0000 
     15 N          21.8105   34.6230   53.3125 N.am      2 SEC2        0.0000 
     16 N          22.2120   35.5890   52.1710 N.am     12 SEL2        0.0000 
     17 N          21.4090   33.6570   54.4540 N.am      7 SEP2        0.0000 
     18 N          20.7335   36.3450   52.2560 N.am      2 SEC2        0.0000 
     19 N          19.2550   37.1010   52.3410 N.am      7 SEP2        0.0000 
     20 N          20.5690   37.6365   52.2680 N.am      2 SEC2        0.0000 
     21 N          21.8830   38.1720   52.1950 N.am     12 SEL2        0.0000 
     22 Zn         21.8050   35.2455   49.9160 Zn        4 ZIC7        0.0000 
     23 Zn         21.4460   36.0010   49.3660 Zn       14 ZIL7        0.0000 
     24 N          20.6820   36.4905   48.2630 N.am      2 SEC2        0.0000 
     25 N          21.4460   36.0010   49.3660 N.am     12 SEL2        0.0000 
     26 N          19.9180   36.9800   47.1600 N.am      7 SEP2        0.0000 
     27 N          21.7270   38.8045   47.7645 N.am      2 SEC2        0.0000 
     28 N          22.8580   38.0050   48.3280 N.am     12 SEL2        0.0000 
     29 N          20.5960   39.6040   47.2010 N.am      7 SEP2        0.0000 
     30 N          25.0260   37.2460   50.2030 N.am      2 SEC2        0.0000 
     31 N          23.3620   37.0980   50.6590 N.am     12 SEL2        0.0000 
     32 N          26.6900   37.3940   49.7470 N.am      7 SEP2        0.0000 
     33 NZ         22.1325   32.5255   50.6895 N.4       3 LYC4        0.0000 
     34 NZ         23.0200   33.6080   49.5900 N.4      13 LYL4        0.0000 
     35 NZ         21.2450   31.4430   51.7890 N.4       8 LYP4        0.0000 
     36 Zn         22.5920   34.0490   50.0280 Zn        4 ZIC7        0.0000 
     37 Zn         23.0200   33.6080   49.5900 Zn       14 ZIL7        0.0000 
     38 N          26.1035   35.8100   49.7865 N.am      2 SEC2        0.0000 
     39 N          25.5170   34.2260   49.8260 N.am     12 SEL2        0.0000 
     40 N          26.7285   33.5295   50.0475 N.am      2 SEC2        0.0000 
     41 N          27.9400   32.8330   50.2690 N.am      7 SEP2        0.0000 
     42 Zn         23.0285   35.1325   49.5800 Zn        4 ZIC7        0.0000 
     43 Zn         23.8930   35.7750   48.6940 Zn       14 ZIL7        0.0000 
     44 CA         26.6215   35.1120   47.8760 C.3       5 GLC5        0.0000 
     45 CA         25.8780   33.4180   47.1430 C.3      15 GLL5        0.0000 
     46 CA         27.3650   36.8060   48.6090 C.3      10 GLP5        0.0000 
     47 CA         26.9990   30.8480   45.4700 C.3       5 GLC5        0.0000 
     48 CA         25.7480   32.3400   46.0570 C.3      15 GLL5        0.0000 
     49 CA         28.2500   29.3560   44.8830 C.3      10 GLP5        0.0000 
     50 CA         23.8515   34.0370   43.6325 C.3       5 GLC5        0.0000 
     51 CA         24.7490   32.7000   44.9170 C.3      15 GLL5        0.0000 
     52 CA         22.9540   35.3740   42.3480 C.3      10 GLP5        0.0000 
     53 O          24.9185   29.6470   43.2305 O.2       1 ALC1        0.0000 
     54 O          25.4990   30.9100   43.5040 O.2      11 ALL1        0.0000 
     55 O          24.3380   28.3840   42.9570 O.2       6 ALP1        0.0000 
     56 CA         21.0785   30.2430   48.5120 C.3       5 GLC5        0.0000 
     57 CA         20.9270   29.6700   46.5330 C.3      15 GLL5        0.0000 
     58 CA         21.2300   30.8160   50.4910 C.3      10 GLP5        0.0000 
     59 CA         19.2855   26.7380   46.9690 C.3       5 GLC5        0.0000 
     60 CA         19.8620   28.7340   46.4250 C.3      15 GLL5        0.0000 
     61 CA         18.7090   24.7420   47.5130 C.3      10 GLP5        0.0000 
     62 O          17.5865   27.8795   47.2820 O.2       1 ALC1        0.0000 
     63 O          18.6970   28.8630   47.1460 O.2      11 ALL1        0.0000 
     64 O          16.4760   26.8960   47.4180 O.2       6 ALP1        0.0000 
     65 N          18.9515   26.6815   45.4630 N.am      2 SEC2        0.0000 
     66 N          20.0010   27.7410   45.5580 N.am     12 SEL2        0.0000 
     67 N          17.9020   25.6220   45.3680 N.am      7 SEP2        0.0000 
     68 CA         20.6980   28.9020   43.4545 C.3       5 GLC5        0.0000 
     69 CA         21.1310   27.5870   44.7970 C.3      15 GLL5        0.0000 
     70 CA         20.2650   30.2170   42.1120 C.3      10 GLP5        0.0000 
     71 CA         22.6535   27.6465   43.2575 C.3       5 GLC5        0.0000 
     72 CA         24.1760   27.7060   41.7180 C.3      10 GLP5        0.0000 
     73 CA         19.5270   26.8595   43.8770 C.3       5 GLC5        0.0000 
     74 CA         17.9230   26.1320   42.9570 C.3      10 GLP5        0.0000 
     75 CA         20.4460   25.7335   45.7965 C.3       5 GLC5        0.0000 
     76 CA         19.7610   23.8800   46.7960 C.3      10 GLP5        0.0000 
     77 N          23.2600   28.3830   43.9040 N.am      2 SEC2        0.0000 
     78 N          22.1820   28.3820   44.8510 N.am     12 SEL2        0.0000 
     79 N          24.3380   28.3840   42.9570 N.am      7 SEP2        0.0000 
     80 CA         21.1815   29.8195   43.9250 C.3       5 GLC5        0.0000 
     81 CA         22.0980   29.4220   45.7380 C.3      15 GLL5        0.0000 
     82 CA         27.3270   33.8185   45.4465 C.3       5 GLC5        0.0000 
     83 CA         28.8410   34.7580   44.2930 C.3      10 GLP5        0.0000 
     84 CA         26.7445   32.1755   48.1795 C.3       5 GLC5        0.0000 
     85 CA         27.6760   31.4720   49.7590 C.3      10 GLP5        0.0000 
     86 CA         24.8215   32.4117   42.6795 C.3       5 GLC5        0.0000 
     87 CA         25.0540   32.7760   40.7480 C.3      10 GLP5        0.0000 
     88 CA         26.3355   30.1483   44.8972 C.3       5 GLC5        0.0000 
     89 CA         24.4290   31.3950   44.3050 C.3      15 GLL5        0.0000 
     90 CA         20.1391   30.8895   45.4973 C.3       5 GLC5        0.0000 
     91 CA         19.0320   32.4670   44.8860 C.3      10 GLP5        0.0000 
@<TRIPOS>BOND
@<TRIPOS>SUBSTRUCTURE
     1 ALC1       53 GROUP        1 X    ALC  0     ROOT ALC X 1
     2 SEC2        4 GROUP        1 X    SEC  0     **** SEC X 2
     3 LYC4        1 GROUP        1 X    LYC  0     **** LYC X 4
     4 ZIC7       12 GROUP        1 X    ZIC  0     **** ZIC X 5
     5 GLC5       44 GROUP        1 X    GLC  0     **** GLC X 6
     6 ALP1       55 GROUP        1 Y    ALP  0     ROOT ALP Y 8
     7 SEP2        6 GROUP        1 Y    SEP  0     **** SEP Y 9
     8 LYP4        3 GROUP        1 Y    LYP  0     **** LYP Y 11
     9 ZIP7       14 GROUP        1 Y    ZIP  0     **** ZIP Y 12
    10 GLP5       46 GROUP        1 Y    GLP  0     **** GLP Y 13
    11 ALL1       54 GROUP        1 Z    ALL  0     ROOT ALL Z 15
    12 SEL2        5 GROUP        1 Z    SEL  0     **** SEL Z 16
    13 LYL4        2 GROUP        1 Z    LYL  0     **** LYL Z 18
    14 ZIL7       13 GROUP        1 Z    ZIL  0     **** ZIL Z 19
    15 GLL5       45 GROUP        1 Z    GLL  0     **** GLL Z 20
@<TRIPOS>SET

