#    Name: 3ncq_ATP_3_ligand
#    Modification time : Tue Mar 25 01:16:15 2014

@<TRIPOS>MOLECULE
3ncq_ATP_3_ligand
   43    45     1     0     0
SMALL
NO_CHARGES


@<TRIPOS>ATOM
      1 PG         22.8040   36.9460   52.1410 P.3       1 ATP200      0.0000 
      2 O1G        23.9880   36.8440   52.9940 O.co2     1 ATP200      0.0000 
      3 O2G        22.2120   35.5890   52.1710 O.co2     1 ATP200      0.0000 
      4 O3G        21.8830   38.1720   52.1950 O.co2     1 ATP200      0.0000 
      5 PB         22.7110   36.7690   49.2400 P.3       1 ATP200      0.0000 
      6 O1B        21.4460   36.0010   49.3660 O.co2     1 ATP200      0.0000 
      7 O2B        22.8580   38.0050   48.3280 O.co2     1 ATP200      0.0000 
      8 O3B        23.3620   37.0980   50.6590 O.3       1 ATP200      0.0000 
      9 PA         24.2530   34.2420   49.0380 P.3       1 ATP200      0.0000 
     10 O1A        23.0200   33.6080   49.5900 O.co2     1 ATP200      0.0000 
     11 O2A        25.5170   34.2260   49.8260 O.co2     1 ATP200      0.0000 
     12 O3A        23.8930   35.7750   48.6940 O.3       1 ATP200      0.0000 
     13 O5'        24.5610   33.6070   47.6370 O.3       1 ATP200      0.0000 
     14 C5'        25.8780   33.4180   47.1430 C.3       1 ATP200      0.0000 
     15 C4'        25.7480   32.3400   46.0570 C.3       1 ATP200      0.0000 
     16 O4'        25.1810   31.1020   46.5490 O.3       1 ATP200      0.0000 
     17 C3'        24.7490   32.7000   44.9170 C.3       1 ATP200      0.0000 
     18 O3'        25.3390   33.6350   43.9760 O.3       1 ATP200      0.0000 
     19 C2'        24.4290   31.3950   44.3050 C.3       1 ATP200      0.0000 
     20 O2'        25.4990   30.9100   43.5040 O.3       1 ATP200      0.0000 
     21 C1'        24.4130   30.4860   45.5180 C.3       1 ATP200      0.0000 
     22 N9         23.0060   30.3840   46.0960 N.pl3     1 ATP200      0.0000 
     23 C8         22.4650   31.1850   47.0720 C.2       1 ATP200      0.0000 
     24 N7         21.1920   30.7780   47.3490 N.2       1 ATP200      0.0000 
     25 C5         20.9270   29.6700   46.5330 C.ar      1 ATP200      0.0000 
     26 C6         19.8620   28.7340   46.4250 C.ar      1 ATP200      0.0000 
     27 N6         18.6970   28.8630   47.1460 N.pl3     1 ATP200      0.0000 
     28 N1         20.0010   27.7410   45.5580 N.ar      1 ATP200      0.0000 
     29 C2         21.1310   27.5870   44.7970 C.ar      1 ATP200      0.0000 
     30 N3         22.1820   28.3820   44.8510 N.ar      1 ATP200      0.0000 
     31 C4         22.0980   29.4220   45.7380 C.ar      1 ATP200      0.0000 
     32 H          26.5538   33.0471   47.8967 H         1 ATP200      0.0000 
     33 H          26.2781   34.3058   46.6803 H         1 ATP200      0.0000 
     34 H          26.6948   32.1497   45.5927 H         1 ATP200      0.0000 
     35 H          23.8732   33.0949   45.3929 H         1 ATP200      0.0000 
     36 H          23.5052   31.3846   43.8640 H         1 ATP200      0.0000 
     37 H          24.7647   29.5310   45.2759 H         1 ATP200      0.0000 
     38 H          22.9211   31.9243   47.4957 H         1 ATP200      0.0000 
     39 H          17.9873   28.1834   46.9606 H         1 ATP200      0.0000 
     40 H          18.6617   29.6251   47.7924 H         1 ATP200      0.0000 
     41 H          21.1404   26.7555   44.1165 H         1 ATP200      0.0000 
     42 H          25.8854   33.0698   43.3580 H         1 ATP200      0.0000 
     43 H          25.2122   29.9967   43.2147 H         1 ATP200      0.0000 
@<TRIPOS>BOND
     1    2    1 ar   
     2    3    1 ar   
     3    4    1 ar   
     4    8    1 1    
     5    6    5 ar   
     6    7    5 ar   
     7    8    5 1    
     8   12    5 1    
     9   10    9 ar   
    10   11    9 ar   
    11   12    9 1    
    12   13    9 1    
    13   14   13 1    
    14   15   14 1    
    15   32   14 1    
    16   33   14 1    
    17   16   15 1    
    18   17   15 1    
    19   34   15 1    
    20   21   16 1    
    21   18   17 1    
    22   19   17 1    
    23   35   17 1    
    24   42   18 1    
    25   20   19 1    
    26   21   19 1    
    27   36   19 1    
    28   43   20 1    
    29   22   21 1    
    30   37   21 1    
    31   23   22 1    
    32   31   22 1    
    33   24   23 2    
    34   38   23 1    
    35   25   24 1    
    36   26   25 ar   
    37   31   25 ar   
    38   27   26 1    
    39   28   26 ar   
    40   39   27 1    
    41   40   27 1    
    42   29   28 ar   
    43   30   29 ar   
    44   41   29 1    
    45   31   30 ar   
@<TRIPOS>SUBSTRUCTURE
     1 ATP200      1 GROUP   
@<TRIPOS>SET

