#    Name: 2zmi_TT2_1_INTS_M
#    Modification time : Tue Mar 25 10:51:05 2014

@<TRIPOS>MOLECULE
2zmi_TT2_1_INTS_M
  140     0     9     0     0
SMALL
NO_CHARGES


@<TRIPOS>ATOM
      1 CA         17.3915    4.7130   18.0805 C.3       3 GLC5        0.0000 
      2 CA         16.2610    5.9630   18.8380 C.3       9 GLL5        0.0000 
      3 CA         18.5220    3.4630   17.3230 C.3       6 GLP5        0.0000 
      4 CA         18.0945    6.0370   19.6280 C.3       3 GLC5        0.0000 
      5 CA         19.9280    6.1110   20.4180 C.3       6 GLP5        0.0000 
      6 CA         12.5730    2.6605   24.1230 C.3       3 GLC5        0.0000 
      7 CA         14.2950    3.4810   24.6210 C.3       9 GLL5        0.0000 
      8 CA         10.8510    1.8400   23.6250 C.3       6 GLP5        0.0000 
      9 CA         15.0420    2.6220   22.9535 C.3       3 GLC5        0.0000 
     10 CA         15.7890    1.7630   21.2860 C.3       6 GLP5        0.0000 
     11 CA         17.4630    8.7010   17.3175 C.3       3 GLC5        0.0000 
     12 CA         16.1690    8.4970   18.9880 C.3       9 GLL5        0.0000 
     13 CA         18.7570    8.9050   15.6470 C.3       6 GLP5        0.0000 
     14 CA         16.1725    9.9970   17.7985 C.3       3 GLC5        0.0000 
     15 CA         16.1760   11.4970   16.6090 C.3       6 GLP5        0.0000 
     16 CA         17.6455    9.9060   19.6365 C.3       3 GLC5        0.0000 
     17 CA         19.1220   11.3150   20.2850 C.3       6 GLP5        0.0000 
     18 CA         18.4450    1.1825   25.2045 C.3       3 GLC5        0.0000 
     19 CA         17.1930    2.5070   25.7780 C.3       9 GLL5        0.0000 
     20 CA         19.6970   -0.1420   24.6310 C.3       6 GLP5        0.0000 
     21 CA         12.2565    6.8770   26.0375 C.3       3 GLC5        0.0000 
     22 CA         14.2070    6.3840   26.1540 C.3       9 GLL5        0.0000 
     23 CA         10.3060    7.3700   25.9210 C.3       6 GLP5        0.0000 
     24 CA         15.5755    9.4175   16.8910 C.3       3 GLC5        0.0000 
     25 CA         14.9750    7.3380   17.1730 C.3       9 GLL5        0.0000 
     26 CA         17.3815   -0.6015   27.1970 C.3       3 GLC5        0.0000 
     27 CA         15.9260    0.4340   27.6630 C.3       9 GLL5        0.0000 
     28 CA         18.8370   -1.6370   26.7310 C.3       6 GLP5        0.0000 
     29 CA         15.9895   -0.4865   29.4865 C.3       3 GLC5        0.0000 
     30 CA         16.0530   -1.4070   31.3100 C.3       6 GLP5        0.0000 
     31 CA         17.3980    1.7005   28.3705 C.3       3 GLC5        0.0000 
     32 CA         18.8700    2.9670   29.0780 C.3       6 GLP5        0.0000 
     33 CA         14.9655   -1.2885   27.8700 C.3       3 GLC5        0.0000 
     34 CA         14.0050   -3.0110   28.0770 C.3       6 GLP5        0.0000 
     35 CA          7.7890    2.6400   29.8895 C.3       3 GLC5        0.0000 
     36 CA          6.6000    1.0110   29.0510 C.3       9 GLL5        0.0000 
     37 CA          8.9780    4.2690   30.7280 C.3       6 GLP5        0.0000 
     38 CA         17.7345    6.6350   25.2525 C.3       3 GLC5        0.0000 
     39 CA         16.0810    5.9460   24.6180 C.3       9 GLL5        0.0000 
     40 CA         19.3880    7.3240   25.8870 C.3       6 GLP5        0.0000 
     41 CA         17.0505    7.7255   25.8180 C.3       3 GLC5        0.0000 
     42 CA         15.5020    6.9760   25.5310 C.3       9 GLL5        0.0000 
     43 CA         18.5990    8.4750   26.1050 C.3       6 GLP5        0.0000 
     44 CA         14.8630    8.8980   26.2875 C.3       3 GLC5        0.0000 
     45 CA         14.2240   10.8200   27.0440 C.3       6 GLP5        0.0000 
     46 CA         13.8230    7.5100   22.5320 C.3       3 GLC5        0.0000 
     47 CA         15.8380    7.2460   22.4820 C.3       9 GLL5        0.0000 
     48 CA         11.8080    7.7740   22.5820 C.3       6 GLP5        0.0000 
     49 CA         16.5915    2.7135   23.0495 C.3       3 GLC5        0.0000 
     50 CA         17.3940    3.6640   24.8130 C.3       9 GLL5        0.0000 
     51 CA         18.8115    2.4815   23.7235 C.3       3 GLC5        0.0000 
     52 CA         20.2290    1.2990   22.6340 C.3       6 GLP5        0.0000 
     53 CA         18.2965    4.6620   23.2535 C.3       3 GLC5        0.0000 
     54 CA         19.1990    5.6600   21.6940 C.3       6 GLP5        0.0000 
     55 CA         15.9165    3.8100   20.8245 C.3       3 GLC5        0.0000 
     56 CA         16.0440    5.8570   20.3630 C.3       9 GLL5        0.0000 
     57 CA         17.6215    5.7585   21.0285 C.3       3 GLC5        0.0000 
     58 CA         10.5830    0.2105   30.0455 C.3       3 GLC5        0.0000 
     59 CA          8.8250   -0.1980   29.1280 C.3       9 GLL5        0.0000 
     60 CA         12.3410    0.6190   30.9630 C.3       6 GLP5        0.0000 
     61 CA          7.4990   -3.3345   28.2380 C.3       3 GLC5        0.0000 
     62 CA          6.6750   -1.5240   28.7690 C.3       9 GLL5        0.0000 
     63 CA          8.3230   -5.1450   27.7070 C.3       6 GLP5        0.0000 
     64 CA          6.7425   -2.4435   30.8005 C.3       3 GLC5        0.0000 
     65 CA          6.8100   -3.3630   32.8320 C.3       6 GLP5        0.0000 
     66 CA          4.7635   -1.5060   28.0585 C.3       3 GLC5        0.0000 
     67 CA          2.8520   -1.4880   27.3480 C.3       6 GLP5        0.0000 
     68 CA          8.3255   -3.1955   27.2840 C.3       3 GLC5        0.0000 
     69 CA          8.3280   -1.2460   26.8610 C.3       9 GLL5        0.0000 
     70 CA          6.9920   -3.3085   27.0750 C.3       3 GLC5        0.0000 
     71 CA          6.8080   -1.3500   27.2230 C.3       9 GLL5        0.0000 
     72 CA          7.1760   -5.2670   26.9270 C.3       6 GLP5        0.0000 
     73 CA          4.9840   -1.8435   26.6730 C.3       3 GLC5        0.0000 
     74 CA          3.1600   -2.3370   26.1230 C.3       6 GLP5        0.0000 
     75 CA          8.4695    3.4325   26.8745 C.3       3 GLC5        0.0000 
     76 CA          8.2340    1.2820   27.1200 C.3       9 GLL5        0.0000 
     77 CA          8.7050    5.5830   26.6290 C.3       6 GLP5        0.0000 
     78 CA          9.5425    1.5610   25.3725 C.3       3 GLC5        0.0000 
     79 CA          5.2625    1.1800   25.7410 C.3       3 GLC5        0.0000 
     80 CA          6.0800   -0.0380   26.7870 C.3       9 GLL5        0.0000 
     81 CA          4.4450    2.3980   24.6950 C.3       6 GLP5        0.0000 
     82 CA          4.4660   -0.7630   27.0675 C.3       3 GLC5        0.0000 
     83 N          18.2330    9.0080   18.0400 N.am      2 SEC2        0.0000 
     84 N          17.5860    8.5260   19.1860 N.am      8 SEL2        0.0000 
     85 N          18.8800    9.4900   16.8940 N.am      5 SEP2        0.0000 
     86 O          18.2165    9.3675   20.1570 O.2       1 ALC1        0.0000 
     87 O          17.5860    8.5260   19.1860 O.2       7 ALL1        0.0000 
     88 O          18.8470   10.2090   21.1280 O.2       4 ALP1        0.0000 
     89 N          11.6295   -0.8210   28.9920 N.am      2 SEC2        0.0000 
     90 N          11.1670   -1.0880   27.6880 N.am      8 SEL2        0.0000 
     91 N          12.0920   -0.5540   30.2960 N.am      5 SEP2        0.0000 
     92 N          12.0520   -2.0845   27.4525 N.am      2 SEC2        0.0000 
     93 N          12.9370   -3.0810   27.2170 N.am      5 SEP2        0.0000 
     94 N          15.7410    4.6335   16.7805 N.am      2 SEC2        0.0000 
     95 N          15.6120    4.8380   18.2500 N.am      8 SEL2        0.0000 
     96 N          15.8700    4.4290   15.3110 N.am      5 SEP2        0.0000 
     97 O          14.2675    4.4415   18.3180 O.2       1 ALC1        0.0000 
     98 O          15.6120    4.8380   18.2500 O.2       7 ALL1        0.0000 
     99 O          12.9230    4.0450   18.3860 O.2       4 ALP1        0.0000 
    100 CA         17.7003    2.7978   27.6242 C.3       3 GLC5        0.0000 
    101 CA         14.1115    9.1532   19.0365 C.3       3 GLC5        0.0000 
    102 CA         12.3980    9.8190   18.3990 C.3       6 GLP5        0.0000 
    103 CA         13.6410    7.4365   20.4703 C.3       3 GLC5        0.0000 
    104 CA         15.4810    8.4780   20.3600 C.3       9 GLL5        0.0000 
    105 CA         11.6350    7.0340   20.1930 C.3       6 GLP5        0.0000 
    106 CA         15.5480   10.2272   20.0270 C.3       3 GLC5        0.0000 
    107 CA         15.2710   11.9670   20.3800 C.3       6 GLP5        0.0000 
    108 CA         15.2737   -0.4955   25.8163 C.3       3 GLC5        0.0000 
    109 CA         15.1010    1.4200   26.8160 C.3       9 GLL5        0.0000 
    110 CA         15.0340   -1.9180   24.3930 C.3       6 GLP5        0.0000 
    111 CA         14.5403    6.1063   28.3253 C.3       3 GLC5        0.0000 
    112 CA         14.3500    4.9310   26.7470 C.3       9 GLL5        0.0000 
    113 CA         14.8020    6.5550   30.2000 C.3       6 GLP5        0.0000 
    114 CA         13.8837    8.5583   18.0570 C.3       3 GLC5        0.0000 
    115 CA         15.7640    7.2570   18.2570 C.3       9 GLL5        0.0000 
    116 CA         16.9994    7.2590   16.6991 C.3       3 GLC5        0.0000 
    117 CA         18.5050    7.5440   15.5380 C.3       6 GLP5        0.0000 
    118 CA         12.7690    0.9992   29.0712 C.3       3 GLC5        0.0000 
    119 CA         12.6330    1.1970   26.8700 C.3       9 GLL5        0.0000 
    120 CA          5.0965    1.7937   28.9947 C.3       3 GLC5        0.0000 
    121 CA          6.7200    1.1920   27.5040 C.3       9 GLL5        0.0000 
    122 CA          3.5330    2.4860   29.7120 C.3       6 GLP5        0.0000 
    123 CA         11.6028    0.6352   29.1322 C.3       3 GLC5        0.0000 
    124 CA         10.4660    0.0230   27.1370 C.3       9 GLL5        0.0000 
    125 CA          6.6705    1.9895   25.7855 C.3       3 GLC5        0.0000 
    126 CA          5.8640    2.7420   24.2590 C.3       6 GLP5        0.0000 
    127 CA          8.3915   -0.9943   31.0815 C.3       3 GLC5        0.0000 
    128 CA          7.3130   -0.3010   29.5040 C.3       9 GLL5        0.0000 
    129 CA          8.7140   -1.7390   32.8470 C.3       6 GLP5        0.0000 
    130 CA         17.6660    5.8302   22.8205 C.3       3 GLC5        0.0000 
    131 CA         17.6337    7.5518   23.4205 C.3       3 GLC5        0.0000 
    132 CA         16.1850    6.0550   23.2760 C.3       9 GLL5        0.0000 
    133 CA         19.2560    8.4530   23.9620 C.3       6 GLP5        0.0000 
    134 CA         18.2900    5.2923   25.9970 C.3       3 GLC5        0.0000 
    135 CA         16.4500    4.7070   25.3790 C.3       9 GLL5        0.0000 
    136 CA         19.6580    6.3990   26.8980 C.3       6 GLP5        0.0000 
    137 CA         17.5123    6.4415   21.7512 C.3       3 GLC5        0.0000 
    138 CA          6.9545   -2.2830   25.2405 C.3       3 GLC5        0.0000 
    139 CA          6.3410   -3.2680   23.4390 C.3       6 GLP5        0.0000 
    140 CA         11.0290    1.2354   25.3888 C.3       3 GLC5        0.0000 
@<TRIPOS>BOND
@<TRIPOS>SUBSTRUCTURE
     1 ALC1       86 GROUP        1 X    ALC  0     ROOT ALC X 1
     2 SEC2       83 GROUP        1 X    SEC  0     **** SEC X 2
     3 GLC5        1 GROUP        1 X    GLC  0     **** GLC X 6
     4 ALP1       88 GROUP        1 Y    ALP  0     ROOT ALP Y 8
     5 SEP2       85 GROUP        1 Y    SEP  0     **** SEP Y 9
     6 GLP5        3 GROUP        1 Y    GLP  0     **** GLP Y 13
     7 ALL1       87 GROUP        1 Z    ALL  0     ROOT ALL Z 15
     8 SEL2       84 GROUP        1 Z    SEL  0     **** SEL Z 16
     9 GLL5        2 GROUP        1 Z    GLL  0     **** GLL Z 20
@<TRIPOS>SET

