#    Name: 2zmi_TT2_1_ligand
#    Modification time : Tue Mar 25 10:51:05 2014

@<TRIPOS>MOLECULE
2zmi_TT2_1_ligand
   88    93     1     0     0
SMALL
NO_CHARGES


@<TRIPOS>ATOM
      1 C17        15.8680    2.7500   26.5630 C.3       1 TT21        0.0000 
      2 C1         16.2610    5.9630   18.8380 C.3       1 TT21        0.0000 
      3 C4         15.4810    8.4780   20.3600 C.3       1 TT21        0.0000 
      4 C20        15.1010    1.4200   26.8160 C.3       1 TT21        0.0000 
      5 C12        14.3500    4.9310   26.7470 C.3       1 TT21        0.0000 
      6 C18        14.2950    3.4810   24.6210 C.3       1 TT21        0.0000 
      7 C2         15.7640    7.2570   18.2570 C.2       1 TT21        0.0000 
      8 C3         16.1690    8.4970   18.9880 C.3       1 TT21        0.0000 
      9 C16        17.1930    2.5070   25.7780 C.3       1 TT21        0.0000 
     10 C11        14.2070    6.3840   26.1540 C.3       1 TT21        0.0000 
     11 C28        14.9750    7.3380   17.1730 C.2       1 TT21        0.0000 
     12 C22        13.7610    1.5620   27.4890 C.2       1 TT21        0.0000 
     13 C23        12.6330    1.1970   26.8700 C.2       1 TT21        0.0000 
     14 C21        15.9260    0.4340   27.6630 C.3       1 TT21        0.0000 
     15 C36         6.6000    1.0110   29.0510 C.3       1 TT21        0.0000 
     16 C24        11.2630    1.2800   27.4660 C.3       1 TT21        0.0000 
     17 C35         6.7200    1.1920   27.5040 C.3       1 TT21        0.0000 
     18 C31         7.3130   -0.3010   29.5040 C.3       1 TT21        0.0000 
     19 C8         16.0810    5.9460   24.6180 C.2       1 TT21        0.0000 
     20 C7         16.1850    6.0550   23.2760 C.2       1 TT21        0.0000 
     21 C14        16.4500    4.7070   25.3790 C.3       1 TT21        0.0000 
     22 C9         15.5020    6.9760   25.5310 C.3       1 TT21        0.0000 
     23 C6         15.8380    7.2460   22.4820 C.2       1 TT21        0.0000 
     24 C15        17.3940    3.6640   24.8130 C.3       1 TT21        0.0000 
     25 C5         15.8130    7.2000   21.1350 C.2       1 TT21        0.0000 
     26 C13        15.1690    3.9440   25.8290 C.3       1 TT21        0.0000 
     27 C10        16.0440    5.8570   20.3630 C.3       1 TT21        0.0000 
     28 C30         8.8250   -0.1980   29.1280 C.3       1 TT21        0.0000 
     29 C29         8.9910   -0.0140   27.5720 C.3       1 TT21        0.0000 
     30 C32         6.6750   -1.5240   28.7690 C.3       1 TT21        0.0000 
     31 C34         8.3280   -1.2460   26.8610 C.3       1 TT21        0.0000 
     32 C33         6.8080   -1.3500   27.2230 C.3       1 TT21        0.0000 
     33 C37         8.2340    1.2820   27.1200 C.3       1 TT21        0.0000 
     34 C25        10.4660    0.0230   27.1370 C.3       1 TT21        0.0000 
     35 C38         6.0800   -0.0380   26.7870 C.3       1 TT21        0.0000 
     36 O2         17.5860    8.5260   19.1860 O.3       1 TT21        0.0000 
     37 O3         11.1670   -1.0880   27.6880 O.3       1 TT21        0.0000 
     38 O1         15.6120    4.8380   18.2500 O.3       1 TT21        0.0000 
     39 H          16.2089    3.1507   27.5523 H         1 TT21        0.0000 
     40 H          17.3415    5.8911   18.6732 H         1 TT21        0.0000 
     41 H          14.4019    8.5422   20.2185 H         1 TT21        0.0000 
     42 H          15.8104    9.3431   20.9359 H         1 TT21        0.0000 
     43 H          14.9433    0.9287   25.8413 H         1 TT21        0.0000 
     44 H          13.3514    4.5167   26.8982 H         1 TT21        0.0000 
     45 H          14.8480    4.9978   27.7161 H         1 TT21        0.0000 
     46 H          15.8200    9.3560   18.4585 H         1 TT21        0.0000 
     47 H          17.1059    1.5823   25.2357 H         1 TT21        0.0000 
     48 H          18.0057    2.4648   26.4812 H         1 TT21        0.0000 
     49 H          13.8620    7.0492   26.9595 H         1 TT21        0.0000 
     50 H          13.4188    6.3637   25.3867 H         1 TT21        0.0000 
     51 H          13.7909    1.9537   28.4401 H         1 TT21        0.0000 
     52 H          12.6440    0.8134   25.8846 H         1 TT21        0.0000 
     53 H           5.5552    0.9549   29.3183 H         1 TT21        0.0000 
     54 H           7.0665    1.8530   29.5406 H         1 TT21        0.0000 
     55 H          10.7348    2.1472   27.0683 H         1 TT21        0.0000 
     56 H          11.3328    1.3803   28.5496 H         1 TT21        0.0000 
     57 H           6.2286    2.0724   27.2104 H         1 TT21        0.0000 
     58 H           7.2146   -0.4169   30.5434 H         1 TT21        0.0000 
     59 H          16.5435    5.2364   22.6998 H         1 TT21        0.0000 
     60 H          16.9003    5.0338   26.3762 H         1 TT21        0.0000 
     61 H          16.1869    7.2079   26.3295 H         1 TT21        0.0000 
     62 H          15.2390    7.8667   24.9851 H         1 TT21        0.0000 
     63 H          15.6197    8.1008   23.0145 H         1 TT21        0.0000 
     64 H          17.0847    3.3827   23.8445 H         1 TT21        0.0000 
     65 H          18.3895    4.0088   24.8670 H         1 TT21        0.0000 
     66 H          16.9200    5.3491   20.8147 H         1 TT21        0.0000 
     67 H          15.1736    5.1976   20.5557 H         1 TT21        0.0000 
     68 H           9.3276   -1.1042   29.4243 H         1 TT21        0.0000 
     69 H           9.2576    0.6550   29.6248 H         1 TT21        0.0000 
     70 H           5.6303   -1.5839   29.0283 H         1 TT21        0.0000 
     71 H           7.1910   -2.4221   29.0683 H         1 TT21        0.0000 
     72 H           8.8290   -2.1472   27.1841 H         1 TT21        0.0000 
     73 H           8.4276   -1.1275   25.7916 H         1 TT21        0.0000 
     74 H           6.3840   -2.1750   26.7347 H         1 TT21        0.0000 
     75 H           8.6727    2.1342   27.6149 H         1 TT21        0.0000 
     76 H           8.3204    1.3824   26.0495 H         1 TT21        0.0000 
     77 H          10.4801   -0.0843   26.0257 H         1 TT21        0.0000 
     78 H           6.1822    0.0829   25.7208 H         1 TT21        0.0000 
     79 H           5.0400   -0.1049   27.0625 H         1 TT21        0.0000 
     80 H          14.8380    3.0008   23.9322 H         1 TT21        0.0000 
     81 H          13.5667    2.8581   24.9067 H         1 TT21        0.0000 
     82 H          13.8565    4.2537   24.1621 H         1 TT21        0.0000 
     83 H          16.7889    0.1940   27.2182 H         1 TT21        0.0000 
     84 H          16.1542    0.8148   28.5591 H         1 TT21        0.0000 
     85 H          15.4320   -0.4203   27.8247 H         1 TT21        0.0000 
     86 H          17.7247    9.1249   19.9747 H         1 TT21        0.0000 
     87 H          10.3371   -1.4962   28.0685 H         1 TT21        0.0000 
     88 H          14.6535    4.9205   18.5229 H         1 TT21        0.0000 
@<TRIPOS>BOND
     1    4    1 1    
     2    9    1 1    
     3   26    1 1    
     4   39    1 1    
     5    7    2 1    
     6   27    2 1    
     7   38    2 1    
     8   40    2 1    
     9    8    3 1    
    10   25    3 1    
    11   41    3 1    
    12   42    3 1    
    13   12    4 1    
    14   14    4 1    
    15   43    4 1    
    16   10    5 1    
    17   26    5 1    
    18   44    5 1    
    19   45    5 1    
    20   26    6 1    
    21   80    6 1    
    22   81    6 1    
    23   82    6 1    
    24    8    7 1    
    25   11    7 2    
    26   36    8 1    
    27   46    8 1    
    28   24    9 1    
    29   47    9 1    
    30   48    9 1    
    31   22   10 1    
    32   49   10 1    
    33   50   10 1    
    34   13   12 2    
    35   51   12 1    
    36   16   13 1    
    37   52   13 1    
    38   83   14 1    
    39   84   14 1    
    40   85   14 1    
    41   17   15 1    
    42   18   15 1    
    43   53   15 1    
    44   54   15 1    
    45   34   16 1    
    46   55   16 1    
    47   56   16 1    
    48   33   17 1    
    49   35   17 1    
    50   57   17 1    
    51   28   18 1    
    52   30   18 1    
    53   58   18 1    
    54   20   19 2    
    55   21   19 1    
    56   22   19 1    
    57   23   20 1    
    58   59   20 1    
    59   24   21 1    
    60   26   21 1    
    61   60   21 1    
    62   61   22 1    
    63   62   22 1    
    64   25   23 2    
    65   63   23 1    
    66   64   24 1    
    67   65   24 1    
    68   27   25 1    
    69   66   27 1    
    70   67   27 1    
    71   29   28 1    
    72   68   28 1    
    73   69   28 1    
    74   31   29 1    
    75   33   29 1    
    76   34   29 1    
    77   32   30 1    
    78   70   30 1    
    79   71   30 1    
    80   32   31 1    
    81   72   31 1    
    82   73   31 1    
    83   35   32 1    
    84   74   32 1    
    85   75   33 1    
    86   76   33 1    
    87   37   34 1    
    88   77   34 1    
    89   78   35 1    
    90   79   35 1    
    91   86   36 1    
    92   87   37 1    
    93   88   38 1    
@<TRIPOS>SUBSTRUCTURE
     1 TT21        1 GROUP   
@<TRIPOS>SET

