#    Name: 4iz0_2BI_2_INTS_M
#    Modification time : Tue Mar 25 04:55:54 2014

@<TRIPOS>MOLECULE
4iz0_2BI_2_INTS_M
   40     0     6     0     0
SMALL
NO_CHARGES


@<TRIPOS>ATOM
      1 N         -29.9175   46.4025   29.1905 N.am      1 SEC2        0.0000 
      2 N         -29.4280   46.7650   30.0450 N.am      5 SEL2        0.0000 
      3 N         -30.4070   46.0400   28.3360 N.am      3 SEP2        0.0000 
      4 N         -30.2405   46.7780   29.6800 N.am      1 SEC2        0.0000 
      5 N         -30.0740   47.5160   31.0240 N.am      5 SEL2        0.0000 
      6 CA        -30.7370   47.7690   30.4620 C.3       2 GLC5        0.0000 
      7 CA        -29.1650   48.3020   31.6600 C.3       6 GLL5        0.0000 
      8 CA        -32.3090   47.2360   29.2640 C.3       4 GLP5        0.0000 
      9 CA        -31.0720   50.4345   33.4700 C.3       2 GLC5        0.0000 
     10 CA        -29.6820   49.1690   32.7320 C.3       6 GLL5        0.0000 
     11 CA        -32.4620   51.7000   34.2080 C.3       4 GLP5        0.0000 
     12 CA        -25.3860   42.6725   27.8855 C.3       2 GLC5        0.0000 
     13 CA        -24.4770   43.3740   29.0620 C.3       6 GLL5        0.0000 
     14 CA        -26.2950   41.9710   26.7090 C.3       4 GLP5        0.0000 
     15 CA        -23.6570   41.8505   28.3775 C.3       2 GLC5        0.0000 
     16 CA        -22.8370   40.3270   27.6930 C.3       4 GLP5        0.0000 
     17 CA        -23.1720   42.6700   29.8595 C.3       2 GLC5        0.0000 
     18 CA        -21.8670   41.9660   30.6570 C.3       4 GLP5        0.0000 
     19 CA        -26.4055   43.1040   29.8625 C.3       2 GLC5        0.0000 
     20 CA        -28.3340   42.8340   30.6630 C.3       4 GLP5        0.0000 
     21 CA        -24.8120   40.7575   34.5440 C.3       2 GLC5        0.0000 
     22 CA        -25.2370   42.1700   34.1900 C.3       6 GLL5        0.0000 
     23 CA        -24.3870   39.3450   34.8980 C.3       4 GLP5        0.0000 
     24 CA        -25.2340   42.3325   35.8675 C.3       2 GLC5        0.0000 
     25 CA        -25.2310   42.4950   37.5450 C.3       4 GLP5        0.0000 
     26 CA        -25.8100   43.8235   36.1470 C.3       2 GLC5        0.0000 
     27 CA        -26.3890   45.1520   34.7490 C.3       6 GLL5        0.0000 
     28 CA        -28.0330   44.9095   34.3135 C.3       2 GLC5        0.0000 
     29 CA        -29.6770   44.6670   33.8780 C.3       4 GLP5        0.0000 
     30 CA        -25.7025   46.3345   36.0925 C.3       2 GLC5        0.0000 
     31 CA        -25.0160   47.5170   37.4360 C.3       4 GLP5        0.0000 
     32 CA        -23.4180   42.7180   30.8960 C.3       2 GLC5        0.0000 
     33 CA        -24.9340   43.0070   31.6610 C.3       6 GLL5        0.0000 
     34 CA        -23.4035   42.8637   32.8470 C.3       2 GLC5        0.0000 
     35 CA        -25.3550   43.3630   32.9460 C.3       6 GLL5        0.0000 
     36 CA        -21.5110   42.9610   32.1260 C.3       4 GLP5        0.0000 
     37 CA        -27.7822   44.8882   33.2712 C.3       2 GLC5        0.0000 
     38 CA        -25.8510   44.6470   33.1860 C.3       6 GLL5        0.0000 
     39 CA        -29.9973   47.9177   33.5190 C.3       2 GLC5        0.0000 
     40 CA        -30.5710   47.1000   34.8420 C.3       4 GLP5        0.0000 
@<TRIPOS>BOND
@<TRIPOS>SUBSTRUCTURE
     1 SEC2        1 GROUP        1 X    SEC  0     ROOT SEC X 2
     2 GLC5        6 GROUP        1 X    GLC  0     **** GLC X 6
     3 SEP2        3 GROUP        1 Y    SEP  0     ROOT SEP Y 9
     4 GLP5        8 GROUP        1 Y    GLP  0     **** GLP Y 13
     5 SEL2        2 GROUP        1 Z    SEL  0     ROOT SEL Z 16
     6 GLL5        7 GROUP        1 Z    GLL  0     **** GLL Z 20
@<TRIPOS>SET

