#    Name: 4iz0_2BI_2_ligand
#    Modification time : Tue Mar 25 04:55:54 2014

@<TRIPOS>MOLECULE
4iz0_2BI_2_ligand
   26    27     1     0     0
SMALL
NO_CHARGES


@<TRIPOS>ATOM
      1 C1        -25.5020   45.2160   30.8510 C.ar      1 2BI602      0.0000 
      2 C2        -25.0040   43.9330   30.6090 C.ar      1 2BI602      0.0000 
      3 C3        -24.9340   43.0070   31.6610 C.ar      1 2BI602      0.0000 
      4 C4        -25.3550   43.3630   32.9460 C.ar      1 2BI602      0.0000 
      5 C5        -25.8510   44.6470   33.1860 C.ar      1 2BI602      0.0000 
      6 C6        -25.9240   45.5720   32.1430 C.ar      1 2BI602      0.0000 
      7 S7        -25.5950   46.4320   29.5740 S.o2      1 2BI602      0.0000 
      8 O8        -24.9030   45.9160   28.4060 O.2       1 2BI602      0.0000 
      9 O9        -25.1700   47.7050   30.1380 O.2       1 2BI602      0.0000 
     10 N10       -27.2110   46.5480   29.2650 N.pl3     1 2BI602      0.0000 
     11 C11       -28.1350   47.1150   30.1130 C.2       1 2BI602      0.0000 
     12 N12       -29.4280   46.7650   30.0450 N.2       1 2BI602      0.0000 
     13 O13       -30.0740   47.5160   31.0240 O.3       1 2BI602      0.0000 
     14 C14       -29.1650   48.3020   31.6600 C.2       1 2BI602      0.0000 
     15 C15       -27.9250   48.0830   31.1190 C.2       1 2BI602      0.0000 
     16 C16       -29.6820   49.1690   32.7320 C.3       1 2BI602      0.0000 
     17 CL7       -24.4770   43.3740   29.0620 Cl        1 2BI602      0.0000 
     18 CL8       -25.2370   42.1700   34.1900 Cl        1 2BI602      0.0000 
     19 CL9       -26.3890   45.1520   34.7490 Cl        1 2BI602      0.0000 
     20 H         -24.5708   42.0621   31.4838 H         1 2BI602      0.0000 
     21 H         -26.2867   46.5166   32.3165 H         1 2BI602      0.0000 
     22 H         -27.4395   46.1372   28.3469 H         1 2BI602      0.0000 
     23 H         -27.1144   48.4706   31.3450 H         1 2BI602      0.0000 
     24 H         -28.9570   49.7181   33.1477 H         1 2BI602      0.0000 
     25 H         -30.3743   49.8060   32.3930 H         1 2BI602      0.0000 
     26 H         -30.1059   48.6389   33.4664 H         1 2BI602      0.0000 
@<TRIPOS>BOND
     1    2    1 ar   
     2    6    1 ar   
     3    7    1 1    
     4    3    2 ar   
     5   17    2 1    
     6    4    3 ar   
     7   20    3 1    
     8    5    4 ar   
     9   18    4 1    
    10    6    5 ar   
    11   19    5 1    
    12   21    6 1    
    13    8    7 2    
    14    9    7 2    
    15   10    7 1    
    16   11   10 1    
    17   22   10 1    
    18   12   11 2    
    19   15   11 1    
    20   13   12 1    
    21   14   13 1    
    22   15   14 2    
    23   16   14 1    
    24   23   15 1    
    25   24   16 1    
    26   25   16 1    
    27   26   16 1    
@<TRIPOS>SUBSTRUCTURE
     1 2BI602      1 GROUP   
@<TRIPOS>SET

