#    Name: 1ol6_ATP_1_INTS_M
#    Modification time : Mon Mar 24 20:16:46 2014

@<TRIPOS>MOLECULE
1ol6_ATP_1_INTS_M
   58     0    12     0     0
SMALL
NO_CHARGES


@<TRIPOS>ATOM
      1 NZ        209.9735   26.4030 -100.5360 N.4       3 LYC4        0.0000 
      2 NZ        210.4060   27.4730 -101.2470 N.4      11 LYL4        0.0000 
      3 NZ        209.5410   25.3330  -99.8250 N.4       7 LYP4        0.0000 
      4 N         209.9735   26.4030 -100.5360 N.am      2 SEC2        0.0000 
      5 N         210.4060   27.4730 -101.2470 N.am     10 SEL2        0.0000 
      6 N         209.5410   25.3330  -99.8250 N.am      6 SEP2        0.0000 
      7 NZ        210.8250   24.8615 -106.2040 N.4       3 LYC4        0.0000 
      8 NZ        210.2620   25.3680 -105.2320 N.4      11 LYL4        0.0000 
      9 NZ        211.3880   24.3550 -107.1760 N.4       7 LYP4        0.0000 
     10 N         210.8250   24.8615 -106.2040 N.am      2 SEC2        0.0000 
     11 N         210.2620   25.3680 -105.2320 N.am     10 SEL2        0.0000 
     12 N         211.3880   24.3550 -107.1760 N.am      6 SEP2        0.0000 
     13 NZ        210.1800   25.1325 -101.3290 N.4       3 LYC4        0.0000 
     14 NZ        210.8190   24.9320 -102.8330 N.4      11 LYL4        0.0000 
     15 NZ        208.3765   25.1580 -100.7160 N.4       3 LYC4        0.0000 
     16 NZ        207.2120   24.9830 -101.6070 N.4      11 LYL4        0.0000 
     17 N         208.3765   25.1580 -100.7160 N.am      2 SEC2        0.0000 
     18 N         207.2120   24.9830 -101.6070 N.am     10 SEL2        0.0000 
     19 CA        206.8685   21.6855 -103.1500 C.3       4 GLC5        0.0000 
     20 CA        206.3620   22.9090 -104.7140 C.3      12 GLL5        0.0000 
     21 CA        207.3750   20.4620 -101.5860 C.3       8 GLP5        0.0000 
     22 CA        201.0345   23.7025 -104.5930 C.3       4 GLC5        0.0000 
     23 CA        202.6350   22.5570 -104.3390 C.3      12 GLL5        0.0000 
     24 CA        199.4340   24.8480 -104.8470 C.3       8 GLP5        0.0000 
     25 CA        203.1610   19.1450 -103.6415 C.3       4 GLC5        0.0000 
     26 CA        203.2920   21.3480 -103.7900 C.3      12 GLL5        0.0000 
     27 CA        203.0300   16.9420 -103.4930 C.3       8 GLP5        0.0000 
     28 CA        204.1570   20.3445 -105.3200 C.3       4 GLC5        0.0000 
     29 CA        205.0220   19.3410 -106.8500 C.3       8 GLP5        0.0000 
     30 CA        205.0185   20.2550 -102.9390 C.3       4 GLC5        0.0000 
     31 CA        206.7450   19.1620 -102.0880 C.3       8 GLP5        0.0000 
     32 CA        202.8045   19.2905  -98.3670 C.3       4 GLC5        0.0000 
     33 CA        201.9510   21.0420  -99.0060 C.3      12 GLL5        0.0000 
     34 CA        203.6580   17.5390  -97.7280 C.3       8 GLP5        0.0000 
     35 CA        202.0680   22.4530  -97.4805 C.3       4 GLC5        0.0000 
     36 CA        202.1850   23.8640  -95.9550 C.3       8 GLP5        0.0000 
     37 O         201.7430   20.4845  -96.6480 O.2       1 ALC1        0.0000 
     38 O         202.2360   21.2800  -97.7300 O.2       9 ALL1        0.0000 
     39 O         201.2500   19.6890  -95.5660 O.2       5 ALP1        0.0000 
     40 N         199.5270   19.6400  -98.5420 N.am      2 SEC2        0.0000 
     41 N         200.7670   20.4350  -99.2930 N.am     10 SEL2        0.0000 
     42 N         198.2870   18.8450  -97.7910 N.am      6 SEP2        0.0000 
     43 CA        201.5240   18.2555 -100.8440 C.3       4 GLC5        0.0000 
     44 CA        200.4680   20.1450 -100.5870 C.3      12 GLL5        0.0000 
     45 CA        202.5800   16.3660 -101.1010 C.3       8 GLP5        0.0000 
     46 CA        198.9470   20.5745  -99.5705 C.3       4 GLC5        0.0000 
     47 CA        197.4260   21.0040  -98.5540 C.3       8 GLP5        0.0000 
     48 CA        200.2935   22.1265  -99.9140 C.3       4 GLC5        0.0000 
     49 CA        200.1190   24.1080  -99.2410 C.3       8 GLP5        0.0000 
     50 CA        205.3338   21.0260 -105.8680 C.3       4 GLC5        0.0000 
     51 CA        204.9290   22.5130 -105.0580 C.3      12 GLL5        0.0000 
     52 CA        206.9433   22.0060 -106.1470 C.3       4 GLC5        0.0000 
     53 CA        208.2410   21.3010 -107.4080 C.3       8 GLP5        0.0000 
     54 CA        204.1727   19.9318 -100.9135 C.3       4 GLC5        0.0000 
     55 CA        202.3330   20.9840 -101.4120 C.3      12 GLL5        0.0000 
     56 CA        205.7840   18.6670 -101.0460 C.3       8 GLP5        0.0000 
     57 CA        201.2354   22.6064  -99.8680 C.3       4 GLC5        0.0000 
     58 CA        202.7900   21.4090 -100.1500 C.3      12 GLL5        0.0000 
@<TRIPOS>BOND
@<TRIPOS>SUBSTRUCTURE
     1 ALC1       37 GROUP        1 X    ALC  0     ROOT ALC X 1
     2 SEC2        4 GROUP        1 X    SEC  0     **** SEC X 2
     3 LYC4        1 GROUP        1 X    LYC  0     **** LYC X 4
     4 GLC5       19 GROUP        1 X    GLC  0     **** GLC X 6
     5 ALP1       39 GROUP        1 Y    ALP  0     ROOT ALP Y 8
     6 SEP2        6 GROUP        1 Y    SEP  0     **** SEP Y 9
     7 LYP4        3 GROUP        1 Y    LYP  0     **** LYP Y 11
     8 GLP5       21 GROUP        1 Y    GLP  0     **** GLP Y 13
     9 ALL1       38 GROUP        1 Z    ALL  0     ROOT ALL Z 15
    10 SEL2        5 GROUP        1 Z    SEL  0     **** SEL Z 16
    11 LYL4        2 GROUP        1 Z    LYL  0     **** LYL Z 18
    12 GLL5       20 GROUP        1 Z    GLL  0     **** GLL Z 20
@<TRIPOS>SET

