#    Name: 1ol6_ATP_1_ligand
#    Modification time : Mon Mar 24 20:16:47 2014

@<TRIPOS>MOLECULE
1ol6_ATP_1_ligand
   43    45     1     0     0
SMALL
NO_CHARGES


@<TRIPOS>ATOM
      1 PG        209.7460   28.0400 -102.3920 P.3       1 ATP1388     0.0000 
      2 O1G       210.7250   28.8620 -103.1480 O.co2     1 ATP1388     0.0000 
      3 O2G       208.5640   28.8300 -101.8740 O.co2     1 ATP1388     0.0000 
      4 O3G       210.4060   27.4730 -101.2470 O.co2     1 ATP1388     0.0000 
      5 PB        209.8410   25.3570 -103.8250 P.3       1 ATP1388     0.0000 
      6 O1B       210.2620   25.3680 -105.2320 O.co2     1 ATP1388     0.0000 
      7 O2B       210.8190   24.9320 -102.8330 O.co2     1 ATP1388     0.0000 
      8 O3B       209.2600   26.7950 -103.3760 O.3       1 ATP1388     0.0000 
      9 PA        207.1570   24.6850 -103.0460 P.3       1 ATP1388     0.0000 
     10 O1A       207.2120   24.9830 -101.6070 O.co2     1 ATP1388     0.0000 
     11 O2A       206.4770   25.7010 -103.8250 O.co2     1 ATP1388     0.0000 
     12 O3A       208.6200   24.4220 -103.6270 O.3       1 ATP1388     0.0000 
     13 O5'       206.5000   23.2620 -103.3000 O.3       1 ATP1388     0.0000 
     14 C5'       206.3620   22.9090 -104.7140 C.3       1 ATP1388     0.0000 
     15 C4'       204.9290   22.5130 -105.0580 C.3       1 ATP1388     0.0000 
     16 O4'       204.6170   21.3070 -104.2950 O.3       1 ATP1388     0.0000 
     17 C3'       203.8360   23.4840 -104.6230 C.3       1 ATP1388     0.0000 
     18 O3'       203.6050   24.4740 -105.5490 O.3       1 ATP1388     0.0000 
     19 C2'       202.6350   22.5570 -104.3390 C.3       1 ATP1388     0.0000 
     20 O2'       201.8600   22.1920 -105.4510 O.3       1 ATP1388     0.0000 
     21 C1'       203.2920   21.3480 -103.7900 C.3       1 ATP1388     0.0000 
     22 N9        203.3070   21.3080 -102.3170 N.pl3     1 ATP1388     0.0000 
     23 C8        204.2610   22.0090 -101.5850 C.2       1 ATP1388     0.0000 
     24 N7        203.9740   22.1310 -100.2980 N.2       1 ATP1388     0.0000 
     25 C5        202.7900   21.4090 -100.1500 C.ar      1 ATP1388     0.0000 
     26 C6        201.9510   21.0420  -99.0060 C.ar      1 ATP1388     0.0000 
     27 N6        202.2360   21.2800  -97.7300 N.pl3     1 ATP1388     0.0000 
     28 N1        200.7670   20.4350  -99.2930 N.ar      1 ATP1388     0.0000 
     29 C2        200.4680   20.1450 -100.5870 C.ar      1 ATP1388     0.0000 
     30 N3        201.2980   20.1270 -101.6200 N.ar      1 ATP1388     0.0000 
     31 C4        202.3330   20.9840 -101.4120 C.ar      1 ATP1388     0.0000 
     32 H         207.0217   22.0671 -104.9701 H         1 ATP1388     0.0000 
     33 H         206.6474   23.7558 -105.3551 H         1 ATP1388     0.0000 
     34 H         204.8316   22.3063 -106.0938 H         1 ATP1388     0.0000 
     35 H         204.1537   23.8628 -103.6420 H         1 ATP1388     0.0000 
     36 H         202.0687   23.0050 -103.5410 H         1 ATP1388     0.0000 
     37 H         202.7422   20.4693 -104.1602 H         1 ATP1388     0.0000 
     38 H         205.0809   22.3753 -102.0253 H         1 ATP1388     0.0000 
     39 H         201.9025   20.6054  -97.0714 H         1 ATP1388     0.0000 
     40 H         202.7582   22.1121  -97.5436 H         1 ATP1388     0.0000 
     41 H         199.4190   19.9002 -100.7852 H         1 ATP1388     0.0000 
     42 H         202.8156   24.1572 -106.0748 H         1 ATP1388     0.0000 
     43 H         202.0614   21.2239 -105.6001 H         1 ATP1388     0.0000 
@<TRIPOS>BOND
     1    2    1 ar   
     2    3    1 ar   
     3    4    1 ar   
     4    8    1 1    
     5    6    5 ar   
     6    7    5 ar   
     7    8    5 1    
     8   12    5 1    
     9   10    9 ar   
    10   11    9 ar   
    11   12    9 1    
    12   13    9 1    
    13   14   13 1    
    14   15   14 1    
    15   32   14 1    
    16   33   14 1    
    17   16   15 1    
    18   17   15 1    
    19   34   15 1    
    20   21   16 1    
    21   18   17 1    
    22   19   17 1    
    23   35   17 1    
    24   42   18 1    
    25   20   19 1    
    26   21   19 1    
    27   36   19 1    
    28   43   20 1    
    29   22   21 1    
    30   37   21 1    
    31   23   22 1    
    32   31   22 1    
    33   24   23 2    
    34   38   23 1    
    35   25   24 1    
    36   26   25 ar   
    37   31   25 ar   
    38   27   26 1    
    39   28   26 ar   
    40   39   27 1    
    41   40   27 1    
    42   29   28 ar   
    43   30   29 ar   
    44   41   29 1    
    45   31   30 ar   
@<TRIPOS>SUBSTRUCTURE
     1 ATP1388     1 GROUP   
@<TRIPOS>SET

