#    Name: 3p5p_A3C_1_INTS_M
#    Modification time : Tue Mar 25 05:59:37 2014

@<TRIPOS>MOLECULE
3p5p_A3C_1_INTS_M
   64     0     9     0     0
SMALL
NO_CHARGES


@<TRIPOS>ATOM
      1 CA         32.7560   -7.2360  -17.1535 C.3       3 GLC5        0.0000 
      2 CA         32.7400   -9.4190  -16.9000 C.3       9 GLL5        0.0000 
      3 CA         32.7720   -5.0530  -17.4070 C.3       6 GLP5        0.0000 
      4 Zn         36.5880  -11.1120  -15.2525 Zn        2 ZIC7        0.0000 
      5 Zn         36.2120  -10.6440  -16.1710 Zn        8 ZIL7        0.0000 
      6 Zn         36.9640  -11.5800  -14.3340 Zn        5 ZIP7        0.0000 
      7 N          36.6640   -9.1950  -16.1285 N.am      1 SEC2        0.0000 
      8 N          36.2120  -10.6440  -16.1710 N.am      7 SEL2        0.0000 
      9 N          37.1160   -7.7460  -16.0860 N.am      4 SEP2        0.0000 
     10 Zn         35.3275  -11.5835  -19.0270 Zn        2 ZIC7        0.0000 
     11 Zn         34.9420  -10.6960  -18.1890 Zn        8 ZIL7        0.0000 
     12 Zn         35.7130  -12.4710  -19.8650 Zn        5 ZIP7        0.0000 
     13 N          35.0485   -9.6985  -19.0600 N.am      1 SEC2        0.0000 
     14 N          34.9420  -10.6960  -18.1890 N.am      7 SEL2        0.0000 
     15 N          35.1550   -8.7010  -19.9310 N.am      4 SEP2        0.0000 
     16 N          33.5695  -11.2375  -13.5135 N.am      1 SEC2        0.0000 
     17 N          32.9190  -12.4050  -14.3910 N.am      7 SEL2        0.0000 
     18 N          34.2200  -10.0700  -12.6360 N.am      4 SEP2        0.0000 
     19 Zn         36.1140  -12.1775  -14.2035 Zn        2 ZIC7        0.0000 
     20 Zn         35.2640  -12.7750  -14.0730 Zn        8 ZIL7        0.0000 
     21 N          34.7420  -11.4225  -13.3545 N.am      1 SEC2        0.0000 
     22 N          35.2640  -12.7750  -14.0730 N.am      7 SEL2        0.0000 
     23 CA         29.8605   -8.7195  -10.7715 C.3       3 GLC5        0.0000 
     24 CA         28.3680   -7.6150  -11.9450 C.3       9 GLL5        0.0000 
     25 CA         31.3530   -9.8240   -9.5980 C.3       6 GLP5        0.0000 
     26 CA         27.0715   -5.2665  -12.6160 C.3       3 GLC5        0.0000 
     27 CA         26.9460   -7.1400  -12.2530 C.3       9 GLL5        0.0000 
     28 CA         27.1970   -3.3930  -12.9790 C.3       6 GLP5        0.0000 
     29 CA         22.3660   -8.9460  -14.0080 C.3       3 GLC5        0.0000 
     30 CA         24.2730   -8.6450  -14.5460 C.3       9 GLL5        0.0000 
     31 CA         20.4590   -9.2470  -13.4700 C.3       6 GLP5        0.0000 
     32 CA         31.6930   -6.3195  -13.9720 C.3       3 GLC5        0.0000 
     33 CA         30.4680   -7.2600  -13.0450 C.3       9 GLL5        0.0000 
     34 CA         32.9180   -5.3790  -14.8990 C.3       6 GLP5        0.0000 
     35 CA         30.0160   -5.2840  -13.2965 C.3       3 GLC5        0.0000 
     36 CA         29.5640   -3.3080  -13.5480 C.3       6 GLP5        0.0000 
     37 CA         30.9105   -8.5420  -11.3215 C.3       3 GLC5        0.0000 
     38 CA         24.4840   -4.4715  -14.7465 C.3       3 GLC5        0.0000 
     39 CA         24.6170   -6.2430  -13.9840 C.3       9 GLL5        0.0000 
     40 CA         24.3510   -2.7000  -15.5090 C.3       6 GLP5        0.0000 
     41 CA         25.9070   -4.8180  -13.4815 C.3       3 GLC5        0.0000 
     42 CA         22.2070   -8.5730  -12.8430 C.3       3 GLC5        0.0000 
     43 CA         23.9550   -7.8990  -12.2160 C.3       9 GLL5        0.0000 
     44 CA         23.4615   -7.8320  -10.4350 C.3       3 GLC5        0.0000 
     45 CA         22.9680   -7.7650   -8.6540 C.3       6 GLP5        0.0000 
     46 CA         27.8680   -5.1930  -14.6090 C.3       3 GLC5        0.0000 
     47 CA         27.5000   -6.8910  -15.2940 C.3       9 GLL5        0.0000 
     48 CA         28.2360   -3.4950  -13.9240 C.3       6 GLP5        0.0000 
     49 CA         27.0190   -6.4742  -10.3390 C.3       3 GLC5        0.0000 
     50 CA         26.3810   -5.5710   -8.5790 C.3       6 GLP5        0.0000 
     51 CA         23.0970   -8.3755  -16.1588 C.3       3 GLC5        0.0000 
     52 CA         21.5000   -8.1180  -17.1360 C.3       6 GLP5        0.0000 
     53 CA         25.3777   -8.5985  -17.6683 C.3       3 GLC5        0.0000 
     54 CA         25.1150   -8.6210  -15.8170 C.3       9 GLL5        0.0000 
     55 CA         24.9250   -8.3440  -19.6550 C.3       6 GLP5        0.0000 
     56 CA         25.0370  -10.6935  -15.8459 C.3       3 GLC5        0.0000 
     57 CA         26.5460   -9.0850  -15.5460 C.3       9 GLL5        0.0000 
     58 CA         24.4540  -12.5280  -16.3280 C.3       6 GLP5        0.0000 
     59 CA         30.1028   -6.6252  -11.1194 C.3       3 GLC5        0.0000 
     60 CA         29.2740   -7.8630  -13.1040 C.3       9 GLL5        0.0000 
     61 CA         30.5610   -5.7510   -9.4540 C.3       6 GLP5        0.0000 
     62 CA         22.8712   -6.2283  -12.6438 C.3       3 GLC5        0.0000 
     63 CA         24.7910   -7.6810  -13.4780 C.3       9 GLL5        0.0000 
     64 CA         21.4130   -5.0260  -12.3140 C.3       6 GLP5        0.0000 
@<TRIPOS>BOND
@<TRIPOS>SUBSTRUCTURE
     1 SEC2        7 GROUP        1 X    SEC  0     ROOT SEC X 2
     2 ZIC7        4 GROUP        1 X    ZIC  0     **** ZIC X 5
     3 GLC5        1 GROUP        1 X    GLC  0     **** GLC X 6
     4 SEP2        9 GROUP        1 Y    SEP  0     ROOT SEP Y 9
     5 ZIP7        6 GROUP        1 Y    ZIP  0     **** ZIP Y 12
     6 GLP5        3 GROUP        1 Y    GLP  0     **** GLP Y 13
     7 SEL2        8 GROUP        1 Z    SEL  0     ROOT SEL Z 16
     8 ZIL7        5 GROUP        1 Z    ZIL  0     **** ZIL Z 19
     9 GLL5        2 GROUP        1 Z    GLL  0     **** GLL Z 20
@<TRIPOS>SET

