#    Name: 3p5p_A3C_1_ligand
#    Modification time : Tue Mar 25 05:59:37 2014

@<TRIPOS>MOLECULE
3p5p_A3C_1_ligand
   62    63     1     0     0
SMALL
NO_CHARGES


@<TRIPOS>ATOM
      1 C01        32.7400   -9.4190  -16.9000 C.3       1 A3C911      0.0000 
      2 O01        33.7600   -9.9660  -16.0980 O.3       1 A3C911      0.0000 
      3 C02        31.4220  -10.1960  -16.8910 C.3       1 A3C911      0.0000 
      4 P02        34.8690  -10.9510  -16.7460 P.3       1 A3C911      0.0000 
      5 N03        31.1750  -10.9530  -15.6830 N.4       1 A3C911      0.0000 
      6 O03        34.3890  -12.4720  -16.5260 O.3       1 A3C911      0.0000 
      7 P04        34.1320  -12.9880  -15.0170 P.3       1 A3C911      0.0000 
      8 O05        34.0190  -14.4670  -15.0680 O.co2     1 A3C911      0.0000 
      9 O06        36.2120  -10.6440  -16.1710 O.co2     1 A3C911      0.0000 
     10 O07        34.9420  -10.6960  -18.1890 O.co2     1 A3C911      0.0000 
     11 O08        32.9190  -12.4050  -14.3910 O.co2     1 A3C911      0.0000 
     12 O09        35.2640  -12.7750  -14.0730 O.co2     1 A3C911      0.0000 
     13 C11        30.6650  -10.0330  -14.6840 C.3       1 A3C911      0.0000 
     14 C12        29.5130   -9.1550  -15.2010 C.3       1 A3C911      0.0000 
     15 C13        30.2510  -12.0450  -15.9070 C.3       1 A3C911      0.0000 
     16 C21        28.5300   -8.7420  -14.0810 C.3       1 A3C911      0.0000 
     17 C22        29.2740   -7.8630  -13.1040 C.2       1 A3C911      0.0000 
     18 C23        28.3680   -7.6150  -11.9450 C.3       1 A3C911      0.0000 
     19 C24        26.9460   -7.1400  -12.2530 C.3       1 A3C911      0.0000 
     20 C25        26.2640   -8.0690  -13.2640 C.3       1 A3C911      0.0000 
     21 C26        24.7910   -7.6810  -13.4780 C.3       1 A3C911      0.0000 
     22 C27        24.2730   -8.6450  -14.5460 C.3       1 A3C911      0.0000 
     23 C28        25.1150   -8.6210  -15.8170 C.3       1 A3C911      0.0000 
     24 C29        26.5460   -9.0850  -15.5460 C.3       1 A3C911      0.0000 
     25 C30        27.1670   -8.1570  -14.5020 C.3       1 A3C911      0.0000 
     26 C31        30.4680   -7.2600  -13.0450 C.2       1 A3C911      0.0000 
     27 C32        24.6170   -6.2430  -13.9840 C.3       1 A3C911      0.0000 
     28 C33        23.9550   -7.8990  -12.2160 C.3       1 A3C911      0.0000 
     29 C34        27.5000   -6.8910  -15.2940 C.3       1 A3C911      0.0000 
     30 H          33.0586   -9.3351  -17.9716 H         1 A3C911      0.0000 
     31 H          32.4974   -8.3671  -16.5975 H         1 A3C911      0.0000 
     32 H          31.4221  -10.8648  -17.7827 H         1 A3C911      0.0000 
     33 H          30.6012   -9.4641  -17.0728 H         1 A3C911      0.0000 
     34 H          32.1320  -11.3542  -15.3217 H         1 A3C911      0.0000 
     35 H          31.4637   -9.3565  -14.3239 H         1 A3C911      0.0000 
     36 H          30.2948  -10.5788  -13.7950 H         1 A3C911      0.0000 
     37 H          28.9613   -9.7036  -15.9694 H         1 A3C911      0.0000 
     38 H          29.9276   -8.2516  -15.6567 H         1 A3C911      0.0000 
     39 H          28.3109   -9.6986  -13.5084 H         1 A3C911      0.0000 
     40 H          28.8399   -6.8638  -11.2591 H         1 A3C911      0.0000 
     41 H          28.2921   -8.5476  -11.3270 H         1 A3C911      0.0000 
     42 H          26.9848   -6.1325  -12.6631 H         1 A3C911      0.0000 
     43 H          26.3650   -7.1253  -11.3327 H         1 A3C911      0.0000 
     44 H          26.2794   -9.0821  -12.7838 H         1 A3C911      0.0000 
     45 H          23.2382   -8.3797  -14.7946 H         1 A3C911      0.0000 
     46 H          24.2684   -9.6624  -14.1364 H         1 A3C911      0.0000 
     47 H          25.1376   -7.6053  -16.2154 H         1 A3C911      0.0000 
     48 H          24.6614   -9.2764  -16.5624 H         1 A3C911      0.0000 
     49 H          27.1193   -9.0345  -16.4584 H         1 A3C911      0.0000 
     50 H          26.5309  -10.0946  -15.1661 H         1 A3C911      0.0000 
     51 H          30.5954  -12.6887  -16.5904 H         1 A3C911      0.0000 
     52 H          30.0834  -12.5671  -15.0708 H         1 A3C911      0.0000 
     53 H          29.3632  -11.7195  -16.2322 H         1 A3C911      0.0000 
     54 H          24.9927   -5.5752  -13.3414 H         1 A3C911      0.0000 
     55 H          25.0783   -6.0990  -14.8595 H         1 A3C911      0.0000 
     56 H          23.6537   -6.0106  -14.1185 H         1 A3C911      0.0000 
     57 H          23.9669   -8.8551  -11.9232 H         1 A3C911      0.0000 
     58 H          24.2917   -7.3533  -11.4486 H         1 A3C911      0.0000 
     59 H          22.9975   -7.6474  -12.3568 H         1 A3C911      0.0000 
     60 H          28.0073   -6.2298  -14.7413 H         1 A3C911      0.0000 
     61 H          28.0600   -7.0922  -16.0976 H         1 A3C911      0.0000 
     62 H          26.6751   -6.4290  -15.6198 H         1 A3C911      0.0000 
@<TRIPOS>BOND
     1    2    1 1    
     2    3    1 1    
     3   30    1 1    
     4   31    1 1    
     5    4    2 1    
     6    5    3 1    
     7   32    3 1    
     8   33    3 1    
     9    6    4 1    
    10    9    4 ar   
    11   10    4 ar   
    12   13    5 1    
    13   15    5 1    
    14   34    5 1    
    15    7    6 1    
    16    8    7 ar   
    17   11    7 ar   
    18   12    7 ar   
    19   14   13 1    
    20   35   13 1    
    21   36   13 1    
    22   16   14 1    
    23   37   14 1    
    24   38   14 1    
    25   51   15 1    
    26   52   15 1    
    27   53   15 1    
    28   17   16 1    
    29   25   16 1    
    30   39   16 1    
    31   18   17 1    
    32   26   17 2    
    33   19   18 1    
    34   40   18 1    
    35   41   18 1    
    36   20   19 1    
    37   42   19 1    
    38   43   19 1    
    39   21   20 1    
    40   25   20 1    
    41   44   20 1    
    42   22   21 1    
    43   27   21 1    
    44   28   21 1    
    45   23   22 1    
    46   45   22 1    
    47   46   22 1    
    48   24   23 1    
    49   47   23 1    
    50   48   23 1    
    51   25   24 1    
    52   49   24 1    
    53   50   24 1    
    54   29   25 1    
    55   54   27 1    
    56   55   27 1    
    57   56   27 1    
    58   57   28 1    
    59   58   28 1    
    60   59   28 1    
    61   60   29 1    
    62   61   29 1    
    63   62   29 1    
@<TRIPOS>SUBSTRUCTURE
     1 A3C911      1 GROUP   
@<TRIPOS>SET

