#    Name: 3mvq_NDP_5_INTS_M
#    Modification time : Mon Mar 24 23:49:19 2014

@<TRIPOS>MOLECULE
3mvq_NDP_5_INTS_M
   92     0    12     0     0
SMALL
NO_CHARGES


@<TRIPOS>ATOM
      1 N          68.6770  -28.2405   30.7865 N.am      2 SEC2        0.0000 
      2 N          67.2970  -28.7150   30.5120 N.am     10 SEL2        0.0000 
      3 N          70.0570  -27.7660   31.0610 N.am      6 SEP2        0.0000 
      4 N          63.8320  -29.0470   30.0925 N.am      2 SEC2        0.0000 
      5 N          65.0620  -29.4880   30.1800 N.am     10 SEL2        0.0000 
      6 N          62.6020  -28.6060   30.0050 N.am      6 SEP2        0.0000 
      7 CA         65.1495  -32.7355   32.4170 C.3       4 GLC5        0.0000 
      8 CA         67.1760  -32.1990   31.6470 C.3      12 GLL5        0.0000 
      9 CA         63.1230  -33.2720   33.1870 C.3       8 GLP5        0.0000 
     10 CA         69.2635  -34.4070   31.7660 C.3       4 GLC5        0.0000 
     11 CA         67.7590  -33.4800   31.0300 C.3      12 GLL5        0.0000 
     12 CA         70.7680  -35.3340   32.5020 C.3       8 GLP5        0.0000 
     13 CA         68.9095  -35.5250   31.7435 C.3       4 GLC5        0.0000 
     14 CA         67.0510  -35.7160   30.9850 C.3      12 GLL5        0.0000 
     15 CA         67.0945  -35.8725   32.8810 C.3       4 GLC5        0.0000 
     16 CA         67.1380  -36.0290   34.7770 C.3       8 GLP5        0.0000 
     17 N          63.7940  -37.3230   34.4775 N.am      2 SEC2        0.0000 
     18 N          64.5650  -37.3770   33.1050 N.am     10 SEL2        0.0000 
     19 N          63.0230  -37.2690   35.8500 N.am      6 SEP2        0.0000 
     20 O          65.2335  -40.4575   35.6295 O.2       1 ALC1        0.0000 
     21 O          64.7880  -40.0110   34.4500 O.2       9 ALL1        0.0000 
     22 O          65.6790  -40.9040   36.8090 O.2       5 ALP1        0.0000 
     23 CA         68.7025  -39.5440   33.7405 C.3       4 GLC5        0.0000 
     24 CA         67.3990  -40.1080   32.0810 C.3      12 GLL5        0.0000 
     25 CA         70.0060  -38.9800   35.4000 C.3       8 GLP5        0.0000 
     26 CA         68.6470  -39.4650   30.5210 C.3       4 GLC5        0.0000 
     27 CA         69.8950  -38.8220   28.9610 C.3       8 GLP5        0.0000 
     28 CA         66.8745  -40.1470   30.3840 C.3       4 GLC5        0.0000 
     29 CA         66.3500  -40.1860   28.6870 C.3       8 GLP5        0.0000 
     30 CA         66.3875  -39.0675   30.3680 C.3       4 GLC5        0.0000 
     31 CA         66.4250  -37.9490   32.0490 C.3      12 GLL5        0.0000 
     32 N          69.6945  -28.5685   33.6540 N.am      2 SEC2        0.0000 
     33 N          68.3570  -29.4830   33.4670 N.am     10 SEL2        0.0000 
     34 N          71.0320  -27.6540   33.8410 N.am      6 SEP2        0.0000 
     35 CA         67.2280  -31.3775   38.5815 C.3       4 GLC5        0.0000 
     36 CA         66.4950  -30.7090   36.9370 C.3      12 GLL5        0.0000 
     37 CA         67.9610  -32.0460   40.2260 C.3       8 GLP5        0.0000 
     38 N          65.1420  -31.4560   39.5655 N.am      2 SEC2        0.0000 
     39 N          64.4860  -31.4410   37.9800 N.am     10 SEL2        0.0000 
     40 N          65.7980  -31.4710   41.1510 N.am      6 SEP2        0.0000 
     41 O          65.1120  -32.4575   37.4700 O.2       1 ALC1        0.0000 
     42 O          64.4860  -31.4410   37.9800 O.2       9 ALL1        0.0000 
     43 O          65.7380  -33.4740   36.9600 O.2       5 ALP1        0.0000 
     44 N          62.4905  -29.9865   38.0410 N.am      2 SEC2        0.0000 
     45 N          63.7210  -29.1210   38.4790 N.am     10 SEL2        0.0000 
     46 N          61.2600  -30.8520   37.6030 N.am      6 SEP2        0.0000 
     47 N          63.6020  -28.5640   39.8940 N.am      2 SEC2        0.0000 
     48 N          63.4830  -28.0070   41.3090 N.am      6 SEP2        0.0000 
     49 O          62.6330  -28.6590   37.2760 O.2       1 ALC1        0.0000 
     50 O          63.7210  -29.1210   38.4790 O.2       9 ALL1        0.0000 
     51 O          61.5450  -28.1970   36.0730 O.2       5 ALP1        0.0000 
     52 O          63.0655  -27.8515   37.8890 O.2       1 ALC1        0.0000 
     53 O          62.4100  -26.5820   37.2990 O.2       5 ALP1        0.0000 
     54 CA         67.8520  -28.5885   37.3110 C.3       4 GLC5        0.0000 
     55 CA         66.1520  -29.0820   38.4930 C.3      12 GLL5        0.0000 
     56 CA         69.5520  -28.0950   36.1290 C.3       8 GLP5        0.0000 
     57 CA         67.0565  -30.5640   39.3595 C.3       4 GLC5        0.0000 
     58 CA         68.9820  -24.8735   37.4365 C.3       4 GLC5        0.0000 
     59 CA         67.0440  -25.4950   38.0220 C.3      12 GLL5        0.0000 
     60 CA         70.9200  -24.2520   36.8510 C.3       8 GLP5        0.0000 
     61 CA         69.3035  -24.5350   38.8675 C.3       4 GLC5        0.0000 
     62 CA         67.4810  -25.0080   39.3850 C.3      12 GLL5        0.0000 
     63 CA         71.1260  -24.0620   38.3500 C.3       8 GLP5        0.0000 
     64 NZ         64.8745  -34.3830   25.0310 N.4       3 LYC4        0.0000 
     65 NZ         65.7950  -34.5410   26.4690 N.4      11 LYL4        0.0000 
     66 NZ         63.9540  -34.2250   23.5930 N.4       7 LYP4        0.0000 
     67 N          64.5215  -37.2210   28.6150 N.am      2 SEC2        0.0000 
     68 N          64.2460  -35.9510   27.7750 N.am     10 SEL2        0.0000 
     69 N          64.7970  -38.4910   29.4550 N.am      6 SEP2        0.0000 
     70 CA         68.8522  -31.4022   30.6893 C.3       4 GLC5        0.0000 
     71 CA         70.2370  -29.9650   30.0400 C.3       8 GLP5        0.0000 
     72 CA         66.5234  -37.2704   33.6709 C.3       4 GLC5        0.0000 
     73 CA         65.4030  -38.4120   32.8670 C.3      12 GLL5        0.0000 
     74 CA         64.8777  -30.6898   35.2100 C.3       4 GLC5        0.0000 
     75 CA         66.8860  -30.6240   35.4790 C.3      12 GLL5        0.0000 
     76 CA         63.0650  -30.7130   34.2120 C.3       8 GLP5        0.0000 
     77 CA         68.1213  -29.3807   36.1685 C.3       4 GLC5        0.0000 
     78 CA         66.9232  -32.6762   35.8350 C.3       4 GLC5        0.0000 
     79 CA         67.1560  -34.6860   35.4620 C.3       8 GLP5        0.0000 
     80 CA         64.0010  -30.2680   35.7908 C.3       4 GLC5        0.0000 
     81 CA         64.9970  -30.5060   37.0640 C.3      12 GLL5        0.0000 
     82 CA         64.6298  -29.7305   39.9280 C.3       4 GLC5        0.0000 
     83 CA         64.8770  -29.1400   37.6750 C.3      12 GLL5        0.0000 
     84 CA         63.7450  -30.3500   41.7720 C.3       8 GLP5        0.0000 
     85 CA         68.1912  -27.1217   37.0192 C.3       4 GLC5        0.0000 
     86 CA         66.6170  -26.8020   37.7970 C.3      12 GLL5        0.0000 
     87 CA         65.4253  -24.9333   38.8327 C.3       4 GLC5        0.0000 
     88 CA         64.0200  -23.7180   39.7560 C.3       8 GLP5        0.0000 
     89 CA         65.7272  -24.6373   39.8275 C.3       4 GLC5        0.0000 
     90 CA         67.3880  -26.1050   40.4130 C.3      12 GLL5        0.0000 
     91 CA         68.3741  -26.8714   41.2662 C.3       4 GLC5        0.0000 
     92 CA         69.5580  -27.2700   42.5420 C.3       8 GLP5        0.0000 
@<TRIPOS>BOND
@<TRIPOS>SUBSTRUCTURE
     1 ALC1       20 GROUP        1 X    ALC  0     ROOT ALC X 1
     2 SEC2        1 GROUP        1 X    SEC  0     **** SEC X 2
     3 LYC4       64 GROUP        1 X    LYC  0     **** LYC X 4
     4 GLC5        7 GROUP        1 X    GLC  0     **** GLC X 6
     5 ALP1       22 GROUP        1 Y    ALP  0     ROOT ALP Y 8
     6 SEP2        3 GROUP        1 Y    SEP  0     **** SEP Y 9
     7 LYP4       66 GROUP        1 Y    LYP  0     **** LYP Y 11
     8 GLP5        9 GROUP        1 Y    GLP  0     **** GLP Y 13
     9 ALL1       21 GROUP        1 Z    ALL  0     ROOT ALL Z 15
    10 SEL2        2 GROUP        1 Z    SEL  0     **** SEL Z 16
    11 LYL4       65 GROUP        1 Z    LYL  0     **** LYL Z 18
    12 GLL5        8 GROUP        1 Z    GLL  0     **** GLL Z 20
@<TRIPOS>SET

