#    Name: 3mvq_NDP_5_ligand
#    Modification time : Mon Mar 24 23:49:19 2014

@<TRIPOS>MOLECULE
3mvq_NDP_5_ligand
   74    78     1     0     0
SMALL
NO_CHARGES


@<TRIPOS>ATOM
      1 PA         66.3040  -29.7190   30.9420 P.3       1 NDP552      0.0000 
      2 O1A        67.2970  -28.7150   30.5120 O.co2     1 NDP552      0.0000 
      3 O2A        65.0620  -29.4880   30.1800 O.co2     1 NDP552      0.0000 
      4 O5B        66.7980  -31.2480   30.6540 O.3       1 NDP552      0.0000 
      5 C5B        67.1760  -32.1990   31.6470 C.3       1 NDP552      0.0000 
      6 C4B        67.7590  -33.4800   31.0300 C.3       1 NDP552      0.0000 
      7 O4B        67.4930  -34.6350   31.8070 O.3       1 NDP552      0.0000 
      8 C3B        67.2390  -33.7990   29.6320 C.3       1 NDP552      0.0000 
      9 O3B        68.3430  -34.0460   28.7870 O.3       1 NDP552      0.0000 
     10 C2B        66.4480  -35.0900   29.7270 C.3       1 NDP552      0.0000 
     11 O2B        66.6930  -35.7970   28.5250 O.3       1 NDP552      0.0000 
     12 C1B        67.0510  -35.7160   30.9850 C.3       1 NDP552      0.0000 
     13 N9A        66.1870  -36.6230   31.7820 N.pl3     1 NDP552      0.0000 
     14 C8A        65.0430  -36.2860   32.4590 C.2       1 NDP552      0.0000 
     15 N7A        64.5650  -37.3770   33.1050 N.2       1 NDP552      0.0000 
     16 C5A        65.4030  -38.4120   32.8670 C.ar      1 NDP552      0.0000 
     17 C6A        65.3820  -39.7370   33.2940 C.ar      1 NDP552      0.0000 
     18 N6A        64.7880  -40.0110   34.4500 N.pl3     1 NDP552      0.0000 
     19 N1A        66.3870  -40.5820   32.8850 N.ar      1 NDP552      0.0000 
     20 C2A        67.3990  -40.1080   32.0810 C.ar      1 NDP552      0.0000 
     21 N3A        67.4080  -38.7880   31.6700 N.ar      1 NDP552      0.0000 
     22 C4A        66.4250  -37.9490   32.0490 C.ar      1 NDP552      0.0000 
     23 O3         66.0580  -29.7010   32.5310 O.3       1 NDP552      0.0000 
     24 PN         66.9880  -28.9170   33.5900 P.3       1 NDP552      0.0000 
     25 O1N        66.7480  -27.4550   33.4790 O.co2     1 NDP552      0.0000 
     26 O2N        68.3570  -29.4830   33.4670 O.co2     1 NDP552      0.0000 
     27 O5D        66.4140  -29.4060   35.0020 O.3       1 NDP552      0.0000 
     28 C5D        66.8860  -30.6240   35.4790 C.3       1 NDP552      0.0000 
     29 C4D        66.4950  -30.7090   36.9370 C.3       1 NDP552      0.0000 
     30 O4D        67.1140  -29.6700   37.6590 O.3       1 NDP552      0.0000 
     31 C3D        64.9970  -30.5060   37.0640 C.3       1 NDP552      0.0000 
     32 O3D        64.4860  -31.4410   37.9800 O.3       1 NDP552      0.0000 
     33 C2D        64.8770  -29.1400   37.6750 C.3       1 NDP552      0.0000 
     34 O2D        63.7210  -29.1210   38.4790 O.3       1 NDP552      0.0000 
     35 C1D        66.1520  -29.0820   38.4930 C.3       1 NDP552      0.0000 
     36 N1N        66.5650  -27.7160   38.8060 N.pl3     1 NDP552      0.0000 
     37 C2N        66.6170  -26.8020   37.7970 C.2       1 NDP552      0.0000 
     38 C3N        67.0440  -25.4950   38.0220 C.2       1 NDP552      0.0000 
     39 C7N        67.0720  -24.5770   36.8550 C.2       1 NDP552      0.0000 
     40 O7N        66.7260  -25.0950   35.5880 O.2       1 NDP552      0.0000 
     41 N7N        67.4430  -23.3220   37.0420 N.am      1 NDP552      0.0000 
     42 C4N        67.4810  -25.0080   39.3850 C.3       1 NDP552      0.0000 
     43 C5N        67.3880  -26.1050   40.4130 C.2       1 NDP552      0.0000 
     44 C6N        66.9460  -27.3890   40.0820 C.2       1 NDP552      0.0000 
     45 P2B        65.6690  -35.8090   27.2670 P.3       1 NDP552      0.0000 
     46 O1X        65.7950  -34.5410   26.4690 O.co2     1 NDP552      0.0000 
     47 O2X        66.0590  -36.9570   26.3560 O.co2     1 NDP552      0.0000 
     48 O3X        64.2460  -35.9510   27.7750 O.co2     1 NDP552      0.0000 
     49 H          66.3159  -32.4989   32.2736 H         1 NDP552      0.0000 
     50 H          67.9387  -31.7898   32.3349 H         1 NDP552      0.0000 
     51 H          68.8488  -33.3475   30.9359 H         1 NDP552      0.0000 
     52 H          66.6174  -33.0271   29.2997 H         1 NDP552      0.0000 
     53 H          65.4475  -34.8388   29.9039 H         1 NDP552      0.0000 
     54 H          67.9518  -36.2777   30.6591 H         1 NDP552      0.0000 
     55 H          64.6467  -35.4045   32.4681 H         1 NDP552      0.0000 
     56 H          65.1524  -40.7916   34.9579 H         1 NDP552      0.0000 
     57 H          64.0300  -39.4119   34.7080 H         1 NDP552      0.0000 
     58 H          68.1599  -40.7424   31.7806 H         1 NDP552      0.0000 
     59 H          67.9727  -30.7081   35.4196 H         1 NDP552      0.0000 
     60 H          66.4434  -31.4789   34.9646 H         1 NDP552      0.0000 
     61 H          66.7415  -31.6708   37.3166 H         1 NDP552      0.0000 
     62 H          64.5588  -30.5184   36.1263 H         1 NDP552      0.0000 
     63 H          64.9145  -28.4266   36.9183 H         1 NDP552      0.0000 
     64 H          66.0091  -29.6606   39.3782 H         1 NDP552      0.0000 
     65 H          66.3340  -27.0733   36.8310 H         1 NDP552      0.0000 
     66 H          67.4732  -22.7457   36.2253 H         1 NDP552      0.0000 
     67 H          67.6597  -23.0628   37.9832 H         1 NDP552      0.0000 
     68 H          66.8472  -24.1686   39.6886 H         1 NDP552      0.0000 
     69 H          68.5137  -24.6495   39.3262 H         1 NDP552      0.0000 
     70 H          67.6659  -25.8581   41.3651 H         1 NDP552      0.0000 
     71 H          66.9091  -28.1105   40.8345 H         1 NDP552      0.0000 
     72 H          68.1996  -34.9721   28.4382 H         1 NDP552      0.0000 
     73 H          64.9000  -32.3127   37.7180 H         1 NDP552      0.0000 
     74 H          63.2164  -28.3084   38.1873 H         1 NDP552      0.0000 
@<TRIPOS>BOND
     1    2    1 ar   
     2    3    1 ar   
     3    4    1 1    
     4   23    1 1    
     5    5    4 1    
     6    6    5 1    
     7   49    5 1    
     8   50    5 1    
     9    7    6 1    
    10    8    6 1    
    11   51    6 1    
    12   12    7 1    
    13    9    8 1    
    14   10    8 1    
    15   52    8 1    
    16   72    9 1    
    17   11   10 1    
    18   12   10 1    
    19   53   10 1    
    20   45   11 1    
    21   13   12 1    
    22   54   12 1    
    23   14   13 1    
    24   22   13 1    
    25   15   14 2    
    26   55   14 1    
    27   16   15 1    
    28   17   16 ar   
    29   22   16 ar   
    30   18   17 1    
    31   19   17 ar   
    32   56   18 1    
    33   57   18 1    
    34   20   19 ar   
    35   21   20 ar   
    36   58   20 1    
    37   22   21 ar   
    38   24   23 1    
    39   25   24 ar   
    40   26   24 ar   
    41   27   24 1    
    42   28   27 1    
    43   29   28 1    
    44   59   28 1    
    45   60   28 1    
    46   30   29 1    
    47   31   29 1    
    48   61   29 1    
    49   35   30 1    
    50   32   31 1    
    51   33   31 1    
    52   62   31 1    
    53   73   32 1    
    54   34   33 1    
    55   35   33 1    
    56   63   33 1    
    57   74   34 1    
    58   36   35 1    
    59   64   35 1    
    60   37   36 1    
    61   44   36 1    
    62   38   37 2    
    63   65   37 1    
    64   39   38 1    
    65   42   38 1    
    66   40   39 2    
    67   41   39 am   
    68   66   41 1    
    69   67   41 1    
    70   43   42 1    
    71   68   42 1    
    72   69   42 1    
    73   44   43 2    
    74   70   43 1    
    75   71   44 1    
    76   46   45 ar   
    77   47   45 ar   
    78   48   45 ar   
@<TRIPOS>SUBSTRUCTURE
     1 NDP552      1 GROUP   
@<TRIPOS>SET

