#    Name: 3SV3_2_CAVITY_N1_6.mol2
#    Modification time : Tue Mar 11 01:17:12 2014

@<TRIPOS>MOLECULE
3SV3_2_CAVITY_N1_6.mol2
  102     0     6     0     0
SMALL
NO_CHARGES


@<TRIPOS>ATOM
      1 CA         16.1130   -7.1459  -13.6733 C.3       5 GLY6        0.0000 
      2 CA         15.5147   -7.8344  -14.8642 C.3       5 GLY6        0.0000 
      3 O          14.9165   -8.5228  -16.0550 O.2       2 ALA2        0.0000 
      4 OD1        14.2908   -9.5431  -15.1508 O.3       3 ASP3        0.0000 
      5 DU         14.3182   -9.2113  -17.2458 H         6 CUB7        0.0000 
      6 O          13.6925  -10.2316  -16.3417 O.2       2 ALA2        0.0000 
      7 NZ         13.7200   -9.8998  -18.4367 N.2       4 LYS4        0.0000 
      8 OG         13.0943  -10.9200  -17.5325 O.2       1 SER1        0.0000 
      9 OG         12.4686  -11.9403  -16.6283 O.2       1 SER1        0.0000 
     10 CA         17.9362   -7.3148  -12.6022 C.3       5 GLY6        0.0000 
     11 DU         17.9637   -6.9830  -14.6973 H         6 CUB7        0.0000 
     12 O          17.3380   -8.0033  -13.7931 O.2       2 ALA2        0.0000 
     13 DU         17.3654   -7.6714  -15.8881 H         6 CUB7        0.0000 
     14 O          16.7397   -8.6917  -14.9839 O.2       2 ALA2        0.0000 
     15 OD1        16.1415   -9.3802  -16.1748 O.3       3 ASP3        0.0000 
     16 O          15.5158  -10.4005  -15.2706 O.2       2 ALA2        0.0000 
     17 CA         15.5432  -10.0687  -17.3656 C.3       5 GLY6        0.0000 
     18 O          14.9175  -11.0889  -16.4614 O.2       2 ALA2        0.0000 
     19 OG         14.3193  -11.7774  -17.6522 O.2       1 SER1        0.0000 
     20 NZ         13.7210  -12.4659  -18.8431 N.2       4 LYS4        0.0000 
     21 N          19.7595   -7.4837  -11.5311 N.2       2 ALA2        0.0000 
     22 CA         19.7869   -7.1519  -13.6262 C.3       5 GLY6        0.0000 
     23 O          19.1612   -8.1721  -12.7220 O.2       2 ALA2        0.0000 
     24 O          18.5355   -9.1924  -11.8178 O.2       2 ALA2        0.0000 
     25 DU         19.1887   -7.8403  -14.8170 H         6 CUB7        0.0000 
     26 O          18.5630   -8.8606  -13.9128 O.2       2 ALA2        0.0000 
     27 NZ         18.5904   -8.5288  -16.0079 N.2       4 LYS4        0.0000 
     28 O          17.9647   -9.5491  -15.1037 O.2       2 ALA2        0.0000 
     29 CA         17.9921   -9.2173  -17.1987 C.3       5 GLY6        0.0000 
     30 CA         17.3665  -10.2375  -16.2945 C.3       5 GLY6        0.0000 
     31 O          16.7408  -11.2578  -15.3903 O.2       2 ALA2        0.0000 
     32 CA         16.1425  -11.9463  -16.5812 C.3       5 GLY6        0.0000 
     33 O          15.5168  -12.9666  -15.6770 O.2       2 ALA2        0.0000 
     34 CA         15.5443  -12.6347  -17.7720 C.3       5 GLY6        0.0000 
     35 N          20.9845   -8.3410  -11.6509 N.2       2 ALA2        0.0000 
     36 N          20.3588   -9.3613  -10.7467 N.2       2 ALA2        0.0000 
     37 DU         21.0119   -8.0092  -13.7459 H         6 CUB7        0.0000 
     38 DU         20.3862   -9.0295  -12.8417 H         6 CUB7        0.0000 
     39 OD1        19.7605  -10.0498  -11.9375 O.3       3 ASP3        0.0000 
     40 NZ         20.4136   -8.6977  -14.9368 N.2       4 LYS4        0.0000 
     41 DU         19.7880   -9.7180  -14.0326 H         6 CUB7        0.0000 
     42 O          19.1623  -10.7382  -13.1284 O.2       2 ALA2        0.0000 
     43 NZ         19.8154   -9.3861  -16.1276 N.2       4 LYS4        0.0000 
     44 NZ         19.1897  -10.4064  -15.2234 N.2       4 LYS4        0.0000 
     45 O          18.5640  -11.4267  -14.3192 O.2       2 ALA2        0.0000 
     46 O          17.9383  -12.4470  -13.4150 O.2       2 ALA2        0.0000 
     47 NZ         18.5914  -11.0949  -16.4143 N.2       4 LYS4        0.0000 
     48 NZ         17.9658  -12.1152  -15.5101 N.2       4 LYS4        0.0000 
     49 OD1        17.3401  -13.1354  -14.6059 O.3       3 ASP3        0.0000 
     50 CA         17.3675  -12.8036  -16.7009 C.3       5 GLY6        0.0000 
     51 CA         16.7418  -13.8239  -15.7967 C.3       5 GLY6        0.0000 
     52 DU         22.2095   -9.1984  -11.7706 H         6 CUB7        0.0000 
     53 O          21.5838  -10.2187  -10.8665 O.2       2 ALA2        0.0000 
     54 O          20.9581  -11.2389   -9.9623 O.2       2 ALA2        0.0000 
     55 DU         21.6112   -9.8868  -12.9615 H         6 CUB7        0.0000 
     56 OD1        20.9855  -10.9071  -12.0573 O.3       3 ASP3        0.0000 
     57 NZ         21.6386   -9.5550  -15.0565 N.2       4 LYS4        0.0000 
     58 NZ         21.0130  -10.5753  -14.1523 N.2       4 LYS4        0.0000 
     59 OD1        20.3873  -11.5956  -13.2481 O.3       3 ASP3        0.0000 
     60 NZ         19.7890  -12.2841  -14.4390 N.2       4 LYS4        0.0000 
     61 OD1        19.1633  -13.3043  -13.5348 O.3       3 ASP3        0.0000 
     62 NZ         19.1908  -12.9725  -15.6298 N.2       4 LYS4        0.0000 
     63 O          21.5300  -13.4484   -7.0828 O.2       2 ALA2        0.0000 
     64 O          22.8088  -11.0760  -10.9862 O.2       2 ALA2        0.0000 
     65 O          21.5574  -13.1166   -9.1778 O.2       2 ALA2        0.0000 
     66 OD1        20.9317  -14.1368   -8.2736 O.3       3 ASP3        0.0000 
     67 OD1        22.8362  -10.7442  -13.0812 O.3       3 ASP3        0.0000 
     68 OD1        22.2105  -11.7645  -12.1770 O.3       3 ASP3        0.0000 
     69 OD1        21.5848  -12.7847  -11.2729 O.3       3 ASP3        0.0000 
     70 OD1        22.2379  -11.4327  -14.2721 O.3       3 ASP3        0.0000 
     71 NZ         21.6123  -12.4529  -13.3679 N.2       4 LYS4        0.0000 
     72 OD1        20.9866  -13.4732  -12.4637 O.3       3 ASP3        0.0000 
     73 O          24.0338  -11.9334  -11.1060 O.2       2 ALA2        0.0000 
     74 O          23.4081  -12.9536  -10.2018 O.2       2 ALA2        0.0000 
     75 O          22.7824  -13.9739   -9.2976 O.2       2 ALA2        0.0000 
     76 O          22.1567  -14.9942   -8.3934 O.2       2 ALA2        0.0000 
     77 OD1        23.4355  -12.6218  -12.2968 O.3       3 ASP3        0.0000 
     78 OD1        22.8098  -13.6421  -11.3926 O.3       3 ASP3        0.0000 
     79 OD1        22.1841  -14.6624  -10.4884 O.3       3 ASP3        0.0000 
     80 CA         25.2313  -13.1225   -9.1307 C.3       5 GLY6        0.0000 
     81 O          24.6057  -14.1428   -8.2265 O.2       2 ALA2        0.0000 
     82 O          23.9800  -15.1631   -7.3223 O.2       2 ALA2        0.0000 
     83 CA         25.2588  -12.7907  -11.2257 C.3       5 GLY6        0.0000 
     84 O          24.6331  -13.8110  -10.3215 O.2       2 ALA2        0.0000 
     85 O          24.0074  -14.8313   -9.4173 O.2       2 ALA2        0.0000 
     86 DU         23.3817  -15.8515   -8.5131 H         6 CUB7        0.0000 
     87 OD1        24.6605  -13.4792  -12.4165 O.3       3 ASP3        0.0000 
     88 OD1        24.0348  -14.4994  -11.5124 O.3       3 ASP3        0.0000 
     89 OD1        23.4091  -15.5197  -10.6082 O.3       3 ASP3        0.0000 
     90 DU         22.7835  -16.5400   -9.7040 H         6 CUB7        0.0000 
     91 DU         25.8306  -15.0001   -8.3462 H         6 CUB7        0.0000 
     92 DU         25.8581  -14.6683  -10.4413 H         6 CUB7        0.0000 
     93 DU         25.2324  -15.6886   -9.5371 H         6 CUB7        0.0000 
     94 NZ         25.2598  -15.3568  -11.6321 N.2       4 LYS4        0.0000 
     95 OD1        24.6341  -16.3771  -10.7279 O.3       3 ASP3        0.0000 
     96 DU         24.0084  -17.3974   -9.8237 H         6 CUB7        0.0000 
     97 NZ         24.6616  -16.0453  -12.8229 N.2       4 LYS4        0.0000 
     98 OD1        24.0359  -17.0655  -11.9188 O.3       3 ASP3        0.0000 
     99 NZ         23.4102  -18.0858  -11.0146 N.2       4 LYS4        0.0000 
    100 CA         25.8591  -17.2344  -10.8477 C.3       5 GLY6        0.0000 
    101 CA         25.2334  -18.2547   -9.9435 C.3       5 GLY6        0.0000 
    102 N          25.2609  -17.9229  -12.0385 N.2       2 ALA2        0.0000 
@<TRIPOS>BOND
@<TRIPOS>SUBSTRUCTURE
     1 SER1        8 GROUP   
     2 ALA2        3 GROUP   
     3 ASP3        4 GROUP   
     4 LYS4        7 GROUP   
     5 GLY6        1 GROUP   
     6 CUB7        5 GROUP   
@<TRIPOS>SET

