#    Name: 3sv3_5SI_2_INTS_M
#    Modification time : Mon Mar 24 18:37:42 2014

@<TRIPOS>MOLECULE
3sv3_5SI_2_INTS_M
   77     0    12     0     0
SMALL
NO_CHARGES


@<TRIPOS>ATOM
      1 CA         17.1765  -18.8115   -6.1035 C.3       4 GLC5        0.0000 
      2 CA         18.6710  -19.8870   -5.6570 C.3      12 GLL5        0.0000 
      3 CA         15.6820  -17.7360   -6.5500 C.3       8 GLP5        0.0000 
      4 CA         17.1310  -19.0285   -7.9920 C.3       4 GLC5        0.0000 
      5 CA         18.5840  -20.5960   -8.0670 C.3      12 GLL5        0.0000 
      6 CA         15.6780  -17.4610   -7.9170 C.3       8 GLP5        0.0000 
      7 NZ         19.4385  -14.8220  -11.6295 N.4       2 LYC4        0.0000 
      8 NZ         19.8690  -16.3910  -12.6150 N.4      10 LYL4        0.0000 
      9 NZ         19.0080  -13.2530  -10.6440 N.4       6 LYP4        0.0000 
     10 Zn         19.3845  -16.3605  -13.6440 Zn        3 ZIC7        0.0000 
     11 Zn         19.8690  -16.3910  -12.6150 Zn       11 ZIL7        0.0000 
     12 Zn         18.9000  -16.3300  -14.6730 Zn        7 ZIP7        0.0000 
     13 Zn         20.9765  -16.3855  -13.1695 Zn        3 ZIC7        0.0000 
     14 Zn         22.0840  -16.3800  -13.7240 Zn        7 ZIP7        0.0000 
     15 Zn         18.0330  -16.6965  -13.9605 Zn        3 ZIC7        0.0000 
     16 Zn         17.1660  -17.0630  -13.2480 Zn       11 ZIL7        0.0000 
     17 N          15.9965  -18.2080  -13.8390 N.am      1 SEC2        0.0000 
     18 N          17.1660  -17.0630  -13.2480 N.am      9 SEL2        0.0000 
     19 N          14.8270  -19.3530  -14.4300 N.am      5 SEP2        0.0000 
     20 NZ         14.8960  -12.6070  -13.8045 N.4       2 LYC4        0.0000 
     21 NZ         15.7000  -13.6740  -14.2160 N.4      10 LYL4        0.0000 
     22 NZ         14.6610  -10.5070  -12.7940 N.4       6 LYP4        0.0000 
     23 N          15.1000  -15.1280  -14.5295 N.am      1 SEC2        0.0000 
     24 N          15.7000  -13.6740  -14.2160 N.am      9 SEL2        0.0000 
     25 N          14.5000  -16.5820  -14.8430 N.am      5 SEP2        0.0000 
     26 N          14.8960  -12.6070  -13.8045 N.am      1 SEC2        0.0000 
     27 N          14.0920  -11.5400  -13.3930 N.am      5 SEP2        0.0000 
     28 CA         15.9500  -21.5955   -9.6270 C.3       4 GLC5        0.0000 
     29 CA         17.2030  -20.2170   -8.5950 C.3      12 GLL5        0.0000 
     30 CA         14.6970  -22.9740  -10.6590 C.3       8 GLP5        0.0000 
     31 NZ         19.5850  -14.3785  -10.4240 N.4       2 LYC4        0.0000 
     32 NZ         20.1620  -15.5040  -10.2040 N.4      10 LYL4        0.0000 
     33 N          19.5850  -14.3785  -10.4240 N.am      1 SEC2        0.0000 
     34 N          20.1620  -15.5040  -10.2040 N.am      9 SEL2        0.0000 
     35 N          19.0080  -13.2530  -10.6440 N.am      5 SEP2        0.0000 
     36 N          14.5935  -15.9015  -10.5990 N.am      1 SEC2        0.0000 
     37 N          15.5660  -16.8180  -11.2130 N.am      9 SEL2        0.0000 
     38 N          13.6210  -14.9850   -9.9850 N.am      5 SEP2        0.0000 
     39 NZ         18.5540  -13.8355  -12.4310 N.4       2 LYC4        0.0000 
     40 NZ         18.1000  -14.4180  -14.2180 N.4      10 LYL4        0.0000 
     41 Zn         18.5000  -15.3740  -14.4455 Zn        3 ZIC7        0.0000 
     42 Zn         18.1000  -14.4180  -14.2180 Zn       11 ZIL7        0.0000 
     43 CA         16.3510  -20.0905   -4.8750 C.3       4 GLC5        0.0000 
     44 CA         17.9020  -21.2140   -5.1990 C.3      12 GLL5        0.0000 
     45 CA         14.8000  -18.9670   -4.5510 C.3       8 GLP5        0.0000 
     46 CA         16.2075  -22.2990   -5.2000 C.3       4 GLC5        0.0000 
     47 CA         14.5130  -23.3840   -5.2010 C.3       8 GLP5        0.0000 
     48 N          18.4695  -14.8100  -10.7690 N.am      1 SEC2        0.0000 
     49 N          17.9310  -16.3670  -10.8940 N.am      9 SEL2        0.0000 
     50 NZ         16.6925  -11.5415  -12.6015 N.4       2 LYC4        0.0000 
     51 NZ         17.4370  -12.5450  -12.7110 N.4      10 LYL4        0.0000 
     52 NZ         18.2225  -12.8990  -11.6775 N.4       2 LYC4        0.0000 
     53 N          16.6925  -11.5415  -12.6015 N.am      1 SEC2        0.0000 
     54 N          17.4370  -12.5450  -12.7110 N.am      9 SEL2        0.0000 
     55 N          15.9480  -10.5380  -12.4920 N.am      5 SEP2        0.0000 
     56 N          18.2225  -12.8990  -11.6775 N.am      1 SEC2        0.0000 
     57 N          20.3525  -21.8635   -9.1100 N.am      1 SEC2        0.0000 
     58 N          19.4680  -20.5200   -9.2040 N.am      9 SEL2        0.0000 
     59 N          21.2370  -23.2070   -9.0160 N.am      5 SEP2        0.0000 
     60 CA         18.7100  -15.1160   -0.8255 C.3       4 GLC5        0.0000 
     61 CA         20.3280  -15.8550   -1.8520 C.3      12 GLL5        0.0000 
     62 CA         17.0920  -14.3770    0.2010 C.3       8 GLP5        0.0000 
     63 CA         20.0885  -19.8800  -13.2055 C.3       4 GLC5        0.0000 
     64 CA         19.5300  -19.1650  -11.3090 C.3      12 GLL5        0.0000 
     65 CA         20.6470  -20.5950  -15.1020 C.3       8 GLP5        0.0000 
     66 CA         17.7470  -17.8758   -6.7408 C.3       4 GLC5        0.0000 
     67 CA         19.6100  -18.5060   -7.3830 C.3      12 GLL5        0.0000 
     68 CA         16.8738  -18.9610   -4.2615 C.3       4 GLC5        0.0000 
     69 CA         19.0720  -18.8770   -4.6490 C.3      12 GLL5        0.0000 
     70 CA         16.0700  -18.9950   -9.0017 C.3       4 GLC5        0.0000 
     71 CA         14.8000  -18.1320   -8.7530 C.3       8 GLP5        0.0000 
     72 CA         17.0892  -21.7332  -10.5358 C.3       4 GLC5        0.0000 
     73 CA         18.7620  -20.1380  -10.4030 C.3      12 GLL5        0.0000 
     74 CA         16.0590  -23.6480  -10.9170 C.3       8 GLP5        0.0000 
     75 CA         17.9544  -20.3659  -12.3379 C.3       4 GLC5        0.0000 
     76 CA         17.4770  -19.4990   -9.9060 C.3      12 GLL5        0.0000 
     77 CA         17.0840  -21.2400  -13.9440 C.3       8 GLP5        0.0000 
@<TRIPOS>BOND
@<TRIPOS>SUBSTRUCTURE
     1 SEC2       17 GROUP        1 X    SEC  0     ROOT SEC X 2
     2 LYC4        7 GROUP        1 X    LYC  0     **** LYC X 4
     3 ZIC7       10 GROUP        1 X    ZIC  0     **** ZIC X 5
     4 GLC5        1 GROUP        1 X    GLC  0     **** GLC X 6
     5 SEP2       19 GROUP        1 Y    SEP  0     ROOT SEP Y 9
     6 LYP4        9 GROUP        1 Y    LYP  0     **** LYP Y 11
     7 ZIP7       12 GROUP        1 Y    ZIP  0     **** ZIP Y 12
     8 GLP5        3 GROUP        1 Y    GLP  0     **** GLP Y 13
     9 SEL2       18 GROUP        1 Z    SEL  0     ROOT SEL Z 16
    10 LYL4        8 GROUP        1 Z    LYL  0     **** LYL Z 18
    11 ZIL7       11 GROUP        1 Z    ZIL  0     **** ZIL Z 19
    12 GLL5        2 GROUP        1 Z    GLL  0     **** GLL Z 20
@<TRIPOS>SET

