#    Name: 3sv3_5SI_2_ligand
#    Modification time : Mon Mar 24 18:37:42 2014

@<TRIPOS>MOLECULE
3sv3_5SI_2_ligand
   48    50     1     0     0
SMALL
NO_CHARGES


@<TRIPOS>ATOM
      1 N1         18.9690  -19.6310   -7.0190 N.am      1 5SI833      0.0000 
      2 C2         19.6100  -18.5060   -7.3830 C.2       1 5SI833      0.0000 
      3 C3         20.0140  -17.5250   -6.4800 C.2       1 5SI833      0.0000 
      4 C4         19.7690  -17.6660   -5.1200 C.ar      1 5SI833      0.0000 
      5 C5         19.0720  -18.8770   -4.6490 C.ar      1 5SI833      0.0000 
      6 C6         18.6710  -19.8870   -5.6570 C.2       1 5SI833      0.0000 
      7 PA         19.5130  -16.4880  -11.1660 P.3       1 5SI833      0.0000 
      8 PB         16.7600  -16.3290  -11.9970 P.3       1 5SI833      0.0000 
      9 PG         16.9860  -13.7910  -13.4320 P.3       1 5SI833      0.0000 
     10 C1'        18.5840  -20.5960   -8.0670 C.3       1 5SI833      0.0000 
     11 O1A        19.8690  -16.3910  -12.6150 O.co2     1 5SI833      0.0000 
     12 O1B        17.1660  -17.0630  -13.2480 O.co2     1 5SI833      0.0000 
     13 O1G        15.7000  -13.6740  -14.2160 O.co2     1 5SI833      0.0000 
     14 C2'        17.2030  -20.2170   -8.5950 C.3       1 5SI833      0.0000 
     15 O2A        20.1620  -15.5040  -10.2040 O.co2     1 5SI833      0.0000 
     16 O2B        15.5660  -16.8180  -11.2130 O.co2     1 5SI833      0.0000 
     17 O2G        18.1000  -14.4180  -14.2180 O.co2     1 5SI833      0.0000 
     18 C3'        17.4770  -19.4990   -9.9060 C.3       1 5SI833      0.0000 
     19 O3'        16.4120  -19.6720  -10.8490 O.3       1 5SI833      0.0000 
     20 S36        17.9020  -21.2140   -5.1990 S.2       1 5SI833      0.0000 
     21 C37        20.1700  -16.7070   -4.2020 C.ar      1 5SI833      0.0000 
     22 C38        19.8990  -16.9000   -2.8480 C.ar      1 5SI833      0.0000 
     23 C39        19.2380  -18.0450   -2.4050 C.ar      1 5SI833      0.0000 
     24 O3A        17.9310  -16.3670  -10.8940 O.3       1 5SI833      0.0000 
     25 O3B        16.6150  -14.7290  -12.1670 O.3       1 5SI833      0.0000 
     26 O3G        17.4370  -12.5450  -12.7110 O.co2     1 5SI833      0.0000 
     27 C4'        18.7620  -20.1380  -10.4030 C.3       1 5SI833      0.0000 
     28 O4'        19.4680  -20.5200   -9.2040 O.3       1 5SI833      0.0000 
     29 C40        18.8230  -19.0330   -3.2950 C.ar      1 5SI833      0.0000 
     30 C41        20.3280  -15.8550   -1.8520 C.3       1 5SI833      0.0000 
     31 C5'        19.5300  -19.1650  -11.3090 C.3       1 5SI833      0.0000 
     32 O5'        19.7770  -17.9680  -10.5790 O.3       1 5SI833      0.0000 
     33 H          19.8286  -18.3384   -8.4065 H         1 5SI833      0.0000 
     34 H          20.5018  -16.6827   -6.8280 H         1 5SI833      0.0000 
     35 H          18.5289  -21.5825   -7.6811 H         1 5SI833      0.0000 
     36 H          16.7270  -19.5547   -7.9108 H         1 5SI833      0.0000 
     37 H          16.6340  -21.0985   -8.7757 H         1 5SI833      0.0000 
     38 H          17.6833  -18.4743   -9.6864 H         1 5SI833      0.0000 
     39 H          20.6609  -15.8635   -4.5124 H         1 5SI833      0.0000 
     40 H          19.0517  -18.1630   -1.3918 H         1 5SI833      0.0000 
     41 H          18.4835  -21.0114  -10.9745 H         1 5SI833      0.0000 
     42 H          18.3382  -19.8663   -2.9481 H         1 5SI833      0.0000 
     43 H          18.9196  -18.9875  -12.1954 H         1 5SI833      0.0000 
     44 H          20.4537  -19.6580  -11.6151 H         1 5SI833      0.0000 
     45 H          21.3185  -15.7178   -1.8610 H         1 5SI833      0.0000 
     46 H          19.9074  -14.9675   -2.0404 H         1 5SI833      0.0000 
     47 H          20.0754  -16.1066   -0.9177 H         1 5SI833      0.0000 
     48 H          16.0392  -18.7548  -10.9893 H         1 5SI833      0.0000 
@<TRIPOS>BOND
     1    2    1 1    
     2    6    1 am   
     3   10    1 1    
     4    3    2 2    
     5   33    2 1    
     6    4    3 1    
     7   34    3 1    
     8    5    4 ar   
     9   21    4 ar   
    10    6    5 1    
    11   29    5 ar   
    12   20    6 2    
    13   11    7 ar   
    14   15    7 ar   
    15   24    7 1    
    16   32    7 1    
    17   12    8 ar   
    18   16    8 ar   
    19   24    8 1    
    20   25    8 1    
    21   13    9 ar   
    22   17    9 ar   
    23   25    9 1    
    24   26    9 ar   
    25   14   10 1    
    26   28   10 1    
    27   35   10 1    
    28   18   14 1    
    29   36   14 1    
    30   37   14 1    
    31   19   18 1    
    32   27   18 1    
    33   38   18 1    
    34   48   19 1    
    35   22   21 ar   
    36   39   21 1    
    37   23   22 ar   
    38   30   22 1    
    39   29   23 ar   
    40   40   23 1    
    41   28   27 1    
    42   31   27 1    
    43   41   27 1    
    44   42   29 1    
    45   45   30 1    
    46   46   30 1    
    47   47   30 1    
    48   32   31 1    
    49   43   31 1    
    50   44   31 1    
@<TRIPOS>SUBSTRUCTURE
     1 5SI833      1 GROUP   
@<TRIPOS>SET

