#    Name: 3VUZ_1_CAVITY_N1_ALL.mol2
#    Modification time : Tue Mar 11 12:16:05 2014

@<TRIPOS>MOLECULE
3VUZ_1_CAVITY_N1_ALL.mol2
   74     0     6     0     0
SMALL
NO_CHARGES


@<TRIPOS>ATOM
      1 DU        -42.4667    2.1817  -19.4808 H         6 CUB7        0.0000 
      2 O         -42.4879    1.1763  -18.3677 O.2       2 ALA2        0.0000 
      3 DU        -42.0480    1.1088  -20.4419 H         6 CUB7        0.0000 
      4 O         -42.0692    0.1035  -19.3288 O.2       2 ALA2        0.0000 
      5 DU        -41.4452    3.5517  -18.2240 H         6 CUB7        0.0000 
      6 CA        -41.4663    2.5463  -17.1109 C.3       5 GLY6        0.0000 
      7 N         -41.0053    3.4841  -20.2981 N.2       2 ALA2        0.0000 
      8 DU        -41.0265    2.4788  -19.1851 H         6 CUB7        0.0000 
      9 DU        -41.0477    1.4735  -18.0720 H         6 CUB7        0.0000 
     10 CA        -41.0688    0.4681  -16.9589 C.3       5 GLY6        0.0000 
     11 N         -40.5866    2.4112  -21.2592 N.2       2 ALA2        0.0000 
     12 DU        -40.6078    1.4059  -20.1461 H         6 CUB7        0.0000 
     13 CZ        -40.6290    0.4006  -19.0331 C.ar      4 PHE5        0.0000 
     14 CZ        -40.6501   -0.6047  -17.9200 C.ar      4 PHE5        0.0000 
     15 N         -40.1891    0.3330  -21.1072 N.2       2 ALA2        0.0000 
     16 CZ        -40.2103   -0.6723  -19.9941 C.ar      4 PHE5        0.0000 
     17 O         -39.9203    7.8700  -22.3805 O.2       2 ALA2        0.0000 
     18 O         -39.9414    6.8647  -21.2674 O.2       2 ALA2        0.0000 
     19 O         -39.9626    5.8594  -20.1544 O.2       2 ALA2        0.0000 
     20 O         -39.9838    4.8541  -19.0413 O.2       2 ALA2        0.0000 
     21 O         -39.5228    5.7918  -22.2285 O.2       2 ALA2        0.0000 
     22 N         -39.5439    4.7865  -21.1154 N.2       2 ALA2        0.0000 
     23 DU        -39.5651    3.7812  -20.0024 H         6 CUB7        0.0000 
     24 DU        -39.5863    2.7759  -18.8893 H         6 CUB7        0.0000 
     25 N         -39.6074    1.7706  -17.7763 N.2       2 ALA2        0.0000 
     26 N         -39.1464    2.7083  -20.9634 N.2       2 ALA2        0.0000 
     27 DU        -39.1676    1.7030  -19.8504 H         6 CUB7        0.0000 
     28 N         -39.1887    0.6977  -18.7373 N.2       2 ALA2        0.0000 
     29 N         -39.2099   -0.3076  -17.6243 N.2       2 ALA2        0.0000 
     30 N         -38.7489    0.6301  -20.8114 N.2       2 ALA2        0.0000 
     31 OG        -38.7701   -0.3752  -19.6984 O.2       1 SER1        0.0000 
     32 CZ        -38.7912   -1.3805  -18.5853 C.ar      4 PHE5        0.0000 
     33 N         -38.3302   -0.4428  -21.7725 N.2       2 ALA2        0.0000 
     34 CZ        -38.3514   -1.4481  -20.6594 C.ar      4 PHE5        0.0000 
     35 OD1       -38.5012    7.1618  -20.9717 O.3       3 ASP3        0.0000 
     36 O         -38.5224    6.1565  -19.8586 O.2       2 ALA2        0.0000 
     37 N         -38.5435    5.1512  -18.7456 N.2       2 ALA2        0.0000 
     38 OD1       -38.0825    6.0889  -21.9327 O.3       3 ASP3        0.0000 
     39 OD1       -38.1037    5.0836  -20.8197 O.3       3 ASP3        0.0000 
     40 N         -38.1249    4.0783  -19.7066 N.2       2 ALA2        0.0000 
     41 N         -38.1460    3.0730  -18.5936 N.2       2 ALA2        0.0000 
     42 N         -37.6850    4.0107  -21.7807 N.2       2 ALA2        0.0000 
     43 N         -37.7062    3.0054  -20.6677 N.2       2 ALA2        0.0000 
     44 OG        -37.7274    2.0001  -19.5546 O.2       1 SER1        0.0000 
     45 N         -37.7485    0.9948  -18.4416 N.2       2 ALA2        0.0000 
     46 OG        -37.3087    0.9272  -20.5157 O.2       1 SER1        0.0000 
     47 CA        -36.6635    5.3807  -20.5239 C.3       5 GLY6        0.0000 
     48 N         -36.6846    4.3754  -19.4109 N.2       2 ALA2        0.0000 
     49 N         -36.2448    4.3079  -21.4850 N.2       2 ALA2        0.0000 
     50 N         -36.2660    3.3025  -20.3720 N.2       2 ALA2        0.0000 
     51 N         -36.2871    2.2972  -19.2589 N.2       2 ALA2        0.0000 
     52 N         -36.3083    1.2919  -18.1458 N.2       2 ALA2        0.0000 
     53 CZ        -35.9108   -0.7863  -17.9938 C.ar      4 PHE5        0.0000 
     54 N         -34.8681    1.5890  -17.8501 N.2       2 ALA2        0.0000 
     55 N         -34.8892    0.5837  -16.7370 N.2       2 ALA2        0.0000 
     56 OG        -34.4494    0.5161  -18.8112 O.2       1 SER1        0.0000 
     57 CZ        -34.4706   -0.4892  -17.6981 C.ar      4 PHE5        0.0000 
     58 OG        -34.4917   -1.4945  -16.5850 O.2       1 SER1        0.0000 
     59 N         -34.5129   -2.4998  -15.4720 N.2       2 ALA2        0.0000 
     60 N         -34.5341   -3.5051  -14.3589 N.2       2 ALA2        0.0000 
     61 N         -34.5552   -4.5104  -13.2459 N.2       2 ALA2        0.0000 
     62 CZ        -34.0730   -2.5674  -17.5461 C.ar      4 PHE5        0.0000 
     63 CZ        -34.0942   -3.5727  -16.4330 C.ar      4 PHE5        0.0000 
     64 N         -34.1154   -4.5780  -15.3200 N.2       2 ALA2        0.0000 
     65 N         -34.1365   -5.5833  -14.2069 N.2       2 ALA2        0.0000 
     66 OG        -33.0303   -0.1921  -17.4024 O.2       1 SER1        0.0000 
     67 OG        -33.0515   -1.1974  -16.2893 O.2       1 SER1        0.0000 
     68 N         -33.0727   -2.2027  -15.1762 N.2       2 ALA2        0.0000 
     69 N         -33.1150   -4.2133  -12.9501 N.2       2 ALA2        0.0000 
     70 OG        -32.6540   -3.2756  -16.1373 O.2       1 SER1        0.0000 
     71 CA        -32.6752   -4.2809  -15.0243 C.3       5 GLY6        0.0000 
     72 CA        -32.6963   -5.2862  -13.9112 C.3       5 GLY6        0.0000 
     73 CA        -30.8374   -6.0620  -14.5765 C.3       5 GLY6        0.0000 
     74 N         -30.4187   -7.1348  -15.5376 N.2       2 ALA2        0.0000 
@<TRIPOS>BOND
@<TRIPOS>SUBSTRUCTURE
     1 SER1       31 GROUP   
     2 ALA2        2 GROUP   
     3 ASP3       35 GROUP   
     4 PHE5       13 GROUP   
     5 GLY6        6 GROUP   
     6 CUB7        1 GROUP   
@<TRIPOS>SET

