#    Name: 3vuz_K15_1_INTS_M
#    Modification time : Tue Mar 25 01:37:58 2014

@<TRIPOS>MOLECULE
3vuz_K15_1_INTS_M
   74     0    12     0     0
SMALL
NO_CHARGES


@<TRIPOS>ATOM
      1 NZ        -37.4880    7.5845  -21.6800 N.4       3 LYC4        0.0000 
      2 NZ        -38.4100    6.4240  -22.2590 N.4      11 LYL4        0.0000 
      3 NZ        -36.5660    8.7450  -21.1010 N.4       7 LYP4        0.0000 
      4 N         -38.7935    6.3320  -23.7430 N.am      2 SEC2        0.0000 
      5 N         -38.4100    6.4240  -22.2590 N.am     10 SEL2        0.0000 
      6 N         -39.1770    6.2400  -25.2270 N.am      6 SEP2        0.0000 
      7 N         -37.4880    7.5845  -21.6800 N.am      2 SEC2        0.0000 
      8 N         -36.5660    8.7450  -21.1010 N.am      6 SEP2        0.0000 
      9 O         -39.4905    3.3735  -23.3815 O.2       1 ALC1        0.0000 
     10 O         -38.2600    3.8510  -22.7580 O.2       9 ALL1        0.0000 
     11 O         -40.7210    2.8960  -24.0050 O.2       5 ALP1        0.0000 
     12 O         -37.6930    4.1580  -23.7760 O.2       1 ALC1        0.0000 
     13 O         -37.1260    4.4650  -24.7940 O.2       5 ALP1        0.0000 
     14 O         -37.8880    2.5795  -23.1660 O.2       1 ALC1        0.0000 
     15 O         -37.5160    1.3080  -23.5740 O.2       5 ALP1        0.0000 
     16 CA        -34.8255    4.2870  -21.3060 C.3       4 GLC5        0.0000 
     17 CA        -36.6580    3.7710  -20.9070 C.3      12 GLL5        0.0000 
     18 CA        -32.9930    4.8030  -21.7050 C.3       8 GLP5        0.0000 
     19 CA        -32.4930    0.8365  -16.7970 C.3       4 GLC5        0.0000 
     20 CA        -34.3010    0.4230  -17.3520 C.3      12 GLL5        0.0000 
     21 CA        -30.6850    1.2500  -16.2420 C.3       8 GLP5        0.0000 
     22 CA        -33.0060    2.1155  -17.7955 C.3       4 GLC5        0.0000 
     23 CA        -31.7110    3.8080  -18.2390 C.3       8 GLP5        0.0000 
     24 CA        -32.7040    0.5455  -15.6145 C.3       4 GLC5        0.0000 
     25 CA        -34.2190   -0.5790  -16.2050 C.3      12 GLL5        0.0000 
     26 CA        -31.1890    1.6700  -15.0240 C.3       8 GLP5        0.0000 
     27 CA        -32.2875   -2.5235  -17.4650 C.3       4 GLC5        0.0000 
     28 CA        -34.2550   -2.0320  -16.6710 C.3      12 GLL5        0.0000 
     29 CA        -30.3200   -3.0150  -18.2590 C.3       8 GLP5        0.0000 
     30 CA        -36.3085   -4.2175  -15.3640 C.3       4 GLC5        0.0000 
     31 CA        -34.6510   -2.9340  -15.5250 C.3      12 GLL5        0.0000 
     32 CA        -37.9660   -5.5010  -15.2030 C.3       8 GLP5        0.0000 
     33 CA        -37.3775   -1.0120  -19.3195 C.3       4 GLC5        0.0000 
     34 CA        -38.0480    0.8190  -19.2660 C.3      12 GLL5        0.0000 
     35 CA        -36.7070   -2.8430  -19.3730 C.3       8 GLP5        0.0000 
     36 CA        -41.2695    1.1625  -23.5545 C.3       4 GLC5        0.0000 
     37 CA        -40.7270    0.8290  -21.4880 C.3      12 GLL5        0.0000 
     38 CA        -41.8120    1.4960  -25.6210 C.3       8 GLP5        0.0000 
     39 CA        -41.8285   -1.3525  -19.8280 C.3       4 GLC5        0.0000 
     40 CA        -41.5730    0.4750  -20.2830 C.3      12 GLL5        0.0000 
     41 CA        -42.0840   -3.1800  -19.3730 C.3       8 GLP5        0.0000 
     42 CA        -40.6350   -1.4340  -19.1975 C.3       4 GLC5        0.0000 
     43 CA        -40.5670    0.3640  -19.1530 C.3      12 GLL5        0.0000 
     44 CA        -40.7030   -3.2320  -19.2420 C.3       8 GLP5        0.0000 
     45 N         -37.4555   -2.4750  -23.2650 N.am      2 SEC2        0.0000 
     46 N         -38.8080   -1.9060  -22.9940 N.am     10 SEL2        0.0000 
     47 N         -36.1030   -3.0440  -23.5360 N.am      6 SEP2        0.0000 
     48 CA        -38.2120   -1.2520  -24.2310 C.3       4 GLC5        0.0000 
     49 CA        -39.9900   -2.1090  -23.6030 C.3      12 GLL5        0.0000 
     50 CA        -36.4340   -0.3950  -24.8590 C.3       8 GLP5        0.0000 
     51 CA        -40.7110   -2.6795  -26.4960 C.3       4 GLC5        0.0000 
     52 CA        -40.5330   -3.0700  -24.5910 C.3      12 GLL5        0.0000 
     53 CA        -40.8890   -2.2890  -28.4010 C.3       8 GLP5        0.0000 
     54 O         -38.4580   -4.6315  -25.2110 O.2       1 ALC1        0.0000 
     55 O         -39.7730   -4.0570  -25.1160 O.2       9 ALL1        0.0000 
     56 O         -37.1430   -5.2060  -25.3060 O.2       5 ALP1        0.0000 
     57 CA        -41.7420   -2.1260  -26.4220 C.3       4 GLC5        0.0000 
     58 CA        -42.5950   -1.9630  -24.4430 C.3      12 GLL5        0.0000 
     59 CA        -42.2035   -0.2335  -25.0320 C.3       4 GLC5        0.0000 
     60 NZ        -37.2945    7.5150  -20.6090 N.4       3 LYC4        0.0000 
     61 NZ        -38.0230    6.2850  -20.1170 N.4      11 LYL4        0.0000 
     62 N         -37.4970    6.8165  -18.9315 N.am      2 SEC2        0.0000 
     63 N         -38.0230    6.2850  -20.1170 N.am     10 SEL2        0.0000 
     64 N         -36.9710    7.3480  -17.7460 N.am      6 SEP2        0.0000 
     65 N         -37.2945    7.5150  -20.6090 N.am      2 SEC2        0.0000 
     66 CA        -35.3392   -0.9565  -18.9045 C.3       4 GLC5        0.0000 
     67 CA        -35.6920    0.4670  -17.9700 C.3      12 GLL5        0.0000 
     68 CA        -35.6820   -2.3580  -20.1480 C.3       8 GLP5        0.0000 
     69 CA        -35.2075    1.1145  -15.2697 C.3       4 GLC5        0.0000 
     70 CA        -36.1550    2.3070  -13.7610 C.3       8 GLP5        0.0000 
     71 CA        -35.5105   -3.2685  -17.4215 C.3       4 GLC5        0.0000 
     72 CA        -36.5680   -4.0540  -18.7450 C.3       8 GLP5        0.0000 
     73 CA        -40.6201   -0.5434  -24.9305 C.3       4 GLC5        0.0000 
     74 CA        -40.6570    0.7460  -26.2630 C.3       8 GLP5        0.0000 
@<TRIPOS>BOND
@<TRIPOS>SUBSTRUCTURE
     1 ALC1        9 GROUP        1 X    ALC  0     ROOT ALC X 1
     2 SEC2        4 GROUP        1 X    SEC  0     **** SEC X 2
     3 LYC4        1 GROUP        1 X    LYC  0     **** LYC X 4
     4 GLC5       16 GROUP        1 X    GLC  0     **** GLC X 6
     5 ALP1       11 GROUP        1 Y    ALP  0     ROOT ALP Y 8
     6 SEP2        6 GROUP        1 Y    SEP  0     **** SEP Y 9
     7 LYP4        3 GROUP        1 Y    LYP  0     **** LYP Y 11
     8 GLP5       18 GROUP        1 Y    GLP  0     **** GLP Y 13
     9 ALL1       10 GROUP        1 Z    ALL  0     ROOT ALL Z 15
    10 SEL2        5 GROUP        1 Z    SEL  0     **** SEL Z 16
    11 LYL4        2 GROUP        1 Z    LYL  0     **** LYL Z 18
    12 GLL5       17 GROUP        1 Z    GLL  0     **** GLL Z 20
@<TRIPOS>SET

