#    Name: 3vuz_K15_1_ligand
#    Modification time : Tue Mar 25 01:37:58 2014

@<TRIPOS>MOLECULE
3vuz_K15_1_ligand
   66    68     1     0     0
SMALL
NO_CHARGES


@<TRIPOS>ATOM
      1 O         -38.4100    6.4240  -22.2590 O.co2     1 K15401      0.0000 
      2 C         -38.1630    5.7520  -21.2390 C.2       1 K15401      0.0000 
      3 CA        -38.0370    4.2510  -21.3710 C.3       1 K15401      0.0000 
      4 N         -38.2600    3.8510  -22.7580 N.4       1 K15401      0.0000 
      5 CB        -36.6580    3.7710  -20.9070 C.3       1 K15401      0.0000 
      6 CG        -36.6230    2.2760  -20.5930 C.3       1 K15401      0.0000 
      7 ND        -37.1930    2.0210  -19.2550 N.4       1 K15401      0.0000 
      8 CE        -36.0950    1.9060  -18.2730 C.3       1 K15401      0.0000 
      9 C11       -35.6920    0.4670  -17.9700 C.3       1 K15401      0.0000 
     10 C12       -34.3010    0.4230  -17.3520 C.3       1 K15401      0.0000 
     11 C13       -34.2190   -0.5790  -16.2050 C.3       1 K15401      0.0000 
     12 C14       -34.2550   -2.0320  -16.6710 C.3       1 K15401      0.0000 
     13 C15       -34.6510   -2.9340  -15.5250 C.3       1 K15401      0.0000 
     14 C5'       -38.0480    0.8190  -19.2660 C.3       1 K15401      0.0000 
     15 C4'       -39.4570    1.3130  -19.5690 C.3       1 K15401      0.0000 
     16 O4'       -39.5900    1.5150  -20.9810 O.3       1 K15401      0.0000 
     17 C1'       -40.7270    0.8290  -21.4880 C.3       1 K15401      0.0000 
     18 C2'       -41.5730    0.4750  -20.2830 C.3       1 K15401      0.0000 
     19 O2'       -42.5200    1.5450  -20.0960 O.3       1 K15401      0.0000 
     20 C3'       -40.5670    0.3640  -19.1530 C.3       1 K15401      0.0000 
     21 O3'       -41.1270    0.7810  -17.9010 O.3       1 K15401      0.0000 
     22 N9        -40.2140   -0.3520  -22.2190 N.pl3     1 K15401      0.0000 
     23 C8        -38.9600   -0.8380  -22.1690 C.2       1 K15401      0.0000 
     24 N7        -38.8080   -1.9060  -22.9940 N.2       1 K15401      0.0000 
     25 C5        -39.9900   -2.1090  -23.6030 C.ar      1 K15401      0.0000 
     26 C6        -40.5330   -3.0700  -24.5910 C.ar      1 K15401      0.0000 
     27 N6        -39.7730   -4.0570  -25.1160 N.pl3     1 K15401      0.0000 
     28 C4        -40.9050   -1.0760  -23.0990 C.ar      1 K15401      0.0000 
     29 N3        -42.1790   -1.0550  -23.5480 N.ar      1 K15401      0.0000 
     30 C2        -42.5950   -1.9630  -24.4430 C.ar      1 K15401      0.0000 
     31 N1        -41.8190   -2.9330  -24.9520 N.ar      1 K15401      0.0000 
     32 OXT       -38.0230    6.2850  -20.1170 O.co2     1 K15401      0.0000 
     33 H         -38.7825    3.7861  -20.7312 H         1 K15401      0.0000 
     34 H         -36.3683    4.3332  -20.0103 H         1 K15401      0.0000 
     35 H         -35.9221    3.9907  -21.6907 H         1 K15401      0.0000 
     36 H         -35.5859    1.9366  -20.6390 H         1 K15401      0.0000 
     37 H         -37.1935    1.7475  -21.3599 H         1 K15401      0.0000 
     38 H         -37.8095    2.8889  -18.9788 H         1 K15401      0.0000 
     39 H         -36.3841    2.3919  -17.3211 H         1 K15401      0.0000 
     40 H         -35.2003    2.4461  -18.6385 H         1 K15401      0.0000 
     41 H         -35.6953   -0.1092  -18.8929 H         1 K15401      0.0000 
     42 H         -36.4088    0.0313  -17.2770 H         1 K15401      0.0000 
     43 H         -34.0411    1.4180  -16.9782 H         1 K15401      0.0000 
     44 H         -33.5733    0.1476  -18.1214 H         1 K15401      0.0000 
     45 H         -35.0569   -0.4036  -15.5148 H         1 K15401      0.0000 
     46 H         -33.2896   -0.4062  -15.6434 H         1 K15401      0.0000 
     47 H         -33.2699   -2.3134  -17.0358 H         1 K15401      0.0000 
     48 H         -34.9755   -2.1287  -17.4798 H         1 K15401      0.0000 
     49 H         -38.0459    0.3373  -18.3050 H         1 K15401      0.0000 
     50 H         -37.7429    0.1376  -20.0394 H         1 K15401      0.0000 
     51 H         -39.6104    2.2602  -19.0546 H         1 K15401      0.0000 
     52 H         -41.2851    1.4610  -22.1389 H         1 K15401      0.0000 
     53 H         -42.0222   -0.4599  -20.4555 H         1 K15401      0.0000 
     54 H         -40.1769   -0.6195  -19.1375 H         1 K15401      0.0000 
     55 H         -38.2396   -0.4708  -21.6079 H         1 K15401      0.0000 
     56 H         -38.8135   -4.0705  -24.8347 H         1 K15401      0.0000 
     57 H         -40.2377   -4.6860  -25.7392 H         1 K15401      0.0000 
     58 H         -43.6149   -1.9113  -24.7743 H         1 K15401      0.0000 
     59 H         -39.2244    3.6573  -22.9382 H         1 K15401      0.0000 
     60 H         -37.9794    4.5645  -23.3999 H         1 K15401      0.0000 
     61 H         -37.7463    3.0261  -22.9939 H         1 K15401      0.0000 
     62 H         -34.6856   -3.8940  -15.8028 H         1 K15401      0.0000 
     63 H         -34.0056   -2.8723  -14.7637 H         1 K15401      0.0000 
     64 H         -35.5537   -2.7007  -15.1636 H         1 K15401      0.0000 
     65 H         -42.1013    2.3405  -20.5341 H         1 K15401      0.0000 
     66 H         -41.8009    1.4804  -18.1392 H         1 K15401      0.0000 
@<TRIPOS>BOND
     1    2    1 ar   
     2    3    2 1    
     3   32    2 ar   
     4    4    3 1    
     5    5    3 1    
     6   33    3 1    
     7   59    4 1    
     8   60    4 1    
     9   61    4 1    
    10    6    5 1    
    11   34    5 1    
    12   35    5 1    
    13    7    6 1    
    14   36    6 1    
    15   37    6 1    
    16    8    7 1    
    17   14    7 1    
    18   38    7 1    
    19    9    8 1    
    20   39    8 1    
    21   40    8 1    
    22   10    9 1    
    23   41    9 1    
    24   42    9 1    
    25   11   10 1    
    26   43   10 1    
    27   44   10 1    
    28   12   11 1    
    29   45   11 1    
    30   46   11 1    
    31   13   12 1    
    32   47   12 1    
    33   48   12 1    
    34   62   13 1    
    35   63   13 1    
    36   64   13 1    
    37   15   14 1    
    38   49   14 1    
    39   50   14 1    
    40   16   15 1    
    41   20   15 1    
    42   51   15 1    
    43   17   16 1    
    44   18   17 1    
    45   22   17 1    
    46   52   17 1    
    47   19   18 1    
    48   20   18 1    
    49   53   18 1    
    50   65   19 1    
    51   21   20 1    
    52   54   20 1    
    53   66   21 1    
    54   23   22 1    
    55   28   22 1    
    56   24   23 2    
    57   55   23 1    
    58   25   24 1    
    59   26   25 ar   
    60   28   25 ar   
    61   27   26 1    
    62   31   26 ar   
    63   56   27 1    
    64   57   27 1    
    65   29   28 ar   
    66   30   29 ar   
    67   31   30 ar   
    68   58   30 1    
@<TRIPOS>SUBSTRUCTURE
     1 K15401      1 GROUP   
@<TRIPOS>SET

