#    Name: 1uu9_BI3_1_INTS_M
#    Modification time : Tue Mar 25 07:06:24 2014

@<TRIPOS>MOLECULE
1uu9_BI3_1_INTS_M
   68     0    12     0     0
SMALL
NO_CHARGES


@<TRIPOS>ATOM
      1 OD1        23.5600   84.1485   27.3610 O.co2     3 ASC3        0.0000 
      2 OD1        22.6160   83.3560   28.2110 O.co2    11 ASL3        0.0000 
      3 OD1        24.5040   84.9410   26.5110 O.co2     7 ASP3        0.0000 
      4 O          23.5600   84.1485   27.3610 O.2       1 ALC1        0.0000 
      5 O          22.6160   83.3560   28.2110 O.2       9 ALL1        0.0000 
      6 O          24.5040   84.9410   26.5110 O.2       5 ALP1        0.0000 
      7 CA         23.4575   80.8690   23.7245 C.3       4 GLC5        0.0000 
      8 CA         23.3280   80.3940   25.9120 C.3      12 GLL5        0.0000 
      9 CA         23.5870   81.3440   21.5370 C.3       8 GLP5        0.0000 
     10 CA         24.4910   79.2585   24.7680 C.3       4 GLC5        0.0000 
     11 CA         25.6540   78.1230   23.6240 C.3       8 GLP5        0.0000 
     12 CA         22.0010   77.1370   24.6220 C.3       4 GLC5        0.0000 
     13 CA         22.5550   77.4040   26.3670 C.3      12 GLL5        0.0000 
     14 CA         21.4470   76.8700   22.8770 C.3       8 GLP5        0.0000 
     15 N          26.6885   75.9650   25.4190 N.am      2 SEC2        0.0000 
     16 N          27.5760   76.1550   26.6150 N.am     10 SEL2        0.0000 
     17 N          25.8010   75.7750   24.2230 N.am      6 SEP2        0.0000 
     18 O          30.4775   76.6450   27.7990 O.2       1 ALC1        0.0000 
     19 O          29.1970   77.3600   27.6830 O.2       9 ALL1        0.0000 
     20 O          31.7580   75.9300   27.9150 O.2       5 ALP1        0.0000 
     21 N          31.7445   79.1130   28.2575 N.am      2 SEC2        0.0000 
     22 N          30.3570   78.9720   28.8250 N.am     10 SEL2        0.0000 
     23 N          33.1320   79.2540   27.6900 N.am      6 SEP2        0.0000 
     24 CA         29.1010   77.6170   29.7685 C.3       4 GLC5        0.0000 
     25 CA         28.0340   79.0350   28.4340 C.3      12 GLL5        0.0000 
     26 CA         30.1680   76.1990   31.1030 C.3       8 GLP5        0.0000 
     27 CA         26.5150   78.8915   30.9655 C.3       4 GLC5        0.0000 
     28 CA         26.5630   80.7200   29.6780 C.3      12 GLL5        0.0000 
     29 CA         26.4670   77.0630   32.2530 C.3       8 GLP5        0.0000 
     30 CA         22.0740   83.0815   25.8720 C.3       4 GLC5        0.0000 
     31 CA         23.4400   82.3390   27.5390 C.3      12 GLL5        0.0000 
     32 CA         21.1600   84.3330   24.5550 C.3       8 GLP5        0.0000 
     33 CA         27.1713   79.2795   26.1120 C.3       4 GLC5        0.0000 
     34 CA         25.3650   79.5310   27.0370 C.3      12 GLL5        0.0000 
     35 CA         28.7450   79.6220   24.9930 C.3       8 GLP5        0.0000 
     36 CA         24.3955   77.9350   25.0798 C.3       4 GLC5        0.0000 
     37 CA         23.7190   78.0900   26.7040 C.3      12 GLL5        0.0000 
     38 CA         22.7312   74.2530   28.2398 C.3       4 GLC5        0.0000 
     39 CA         22.4960   76.0240   26.5390 C.3      12 GLL5        0.0000 
     40 CA         22.4170   72.8240   29.6830 C.3       8 GLP5        0.0000 
     41 CA         22.5837   75.5880   24.8657 C.3       4 GLC5        0.0000 
     42 CA         23.5950   75.3400   27.0540 C.3      12 GLL5        0.0000 
     43 CA         22.1220   75.4940   22.9350 C.3       8 GLP5        0.0000 
     44 CA         25.6080   74.4168   27.7795 C.3       4 GLC5        0.0000 
     45 CA         27.0440   73.1450   28.3320 C.3       8 GLP5        0.0000 
     46 CA         24.4292   76.7210   29.4210 C.3       4 GLC5        0.0000 
     47 CA         24.7490   76.0370   27.4000 C.3      12 GLL5        0.0000 
     48 CA         24.0750   76.7150   31.5300 C.3       8 GLP5        0.0000 
     49 CA         25.2188   77.4250   25.4680 C.3       4 GLC5        0.0000 
     50 CA         28.1758   79.1145   26.5415 C.3       4 GLC5        0.0000 
     51 CA         27.1790   78.1790   27.7460 C.3      12 GLL5        0.0000 
     52 CA         26.0211   78.3405   25.5562 C.3       4 GLC5        0.0000 
     53 CA         28.6740   80.2680   30.9337 C.3       4 GLC5        0.0000 
     54 CA         27.7260   80.2170   29.1110 C.3      12 GLL5        0.0000 
     55 CA         29.1800   79.8210   32.7720 C.3       8 GLP5        0.0000 
     56 CA         28.4565   80.1685   27.0442 C.3       4 GLC5        0.0000 
     57 CA         26.5218   80.7207   31.7192 C.3       4 GLC5        0.0000 
     58 CA         27.1010   81.0020   33.6140 C.3       8 GLP5        0.0000 
     59 CA         24.9010   78.9345   31.4345 C.3       4 GLC5        0.0000 
     60 CA         25.3220   80.1590   29.9710 C.3      12 GLL5        0.0000 
     61 CA         24.9820   77.3200   32.6140 C.3       8 GLP5        0.0000 
     62 CA         25.7665   81.3067   32.1467 C.3       4 GLC5        0.0000 
     63 CA         24.3180   80.9390   30.5390 C.3      12 GLL5        0.0000 
     64 CA         23.5830   81.6478   32.2938 C.3       4 GLC5        0.0000 
     65 CA         24.5460   82.2840   30.8200 C.3      12 GLL5        0.0000 
     66 CA         22.7340   81.6840   33.9080 C.3       8 GLP5        0.0000 
     67 CA         26.6930   81.7285   31.9337 C.3       4 GLC5        0.0000 
     68 CA         25.7860   82.8490   30.5360 C.3      12 GLL5        0.0000 
@<TRIPOS>BOND
@<TRIPOS>SUBSTRUCTURE
     1 ALC1        4 GROUP        1 X    ALC  0     ROOT ALC X 1
     2 SEC2       15 GROUP        1 X    SEC  0     **** SEC X 2
     3 ASC3        1 GROUP        1 X    ASC  0     **** ASC X 3
     4 GLC5        7 GROUP        1 X    GLC  0     **** GLC X 6
     5 ALP1        6 GROUP        1 Y    ALP  0     ROOT ALP Y 8
     6 SEP2       17 GROUP        1 Y    SEP  0     **** SEP Y 9
     7 ASP3        3 GROUP        1 Y    ASP  0     **** ASP Y 10
     8 GLP5        9 GROUP        1 Y    GLP  0     **** GLP Y 13
     9 ALL1        5 GROUP        1 Z    ALL  0     ROOT ALL Z 15
    10 SEL2       16 GROUP        1 Z    SEL  0     **** SEL Z 16
    11 ASL3        2 GROUP        1 Z    ASL  0     **** ASL Z 17
    12 GLL5        8 GROUP        1 Z    GLL  0     **** GLL Z 20
@<TRIPOS>SET

