#    Name: 1uu9_BI3_1_ligand
#    Modification time : Tue Mar 25 07:06:24 2014

@<TRIPOS>MOLECULE
1uu9_BI3_1_ligand
   50    54     1     0     0
SMALL
NO_CHARGES


@<TRIPOS>ATOM
      1 NBC        22.6160   83.3560   28.2110 N.4       1 BI31370     0.0000 
      2 CBB        23.4400   82.3390   27.5390 C.3       1 BI31370     0.0000 
      3 CBA        22.5360   81.3210   26.8390 C.3       1 BI31370     0.0000 
      4 CAY        23.3280   80.3940   25.9120 C.3       1 BI31370     0.0000 
      5 NAH        24.1130   79.3600   26.6060 N.pl3     1 BI31370     0.0000 
      6 CAW        25.3650   79.5310   27.0370 C.2       1 BI31370     0.0000 
      7 CAE        23.7190   78.0900   26.7040 C.ar      1 BI31370     0.0000 
      8 CAF        22.5550   77.4040   26.3670 C.ar      1 BI31370     0.0000 
      9 CAA        22.4960   76.0240   26.5390 C.ar      1 BI31370     0.0000 
     10 CAB        23.5950   75.3400   27.0540 C.ar      1 BI31370     0.0000 
     11 CAC        24.7490   76.0370   27.4000 C.ar      1 BI31370     0.0000 
     12 CAD        24.8180   77.4170   27.2240 C.ar      1 BI31370     0.0000 
     13 CAG        25.8300   78.3430   27.4250 C.2       1 BI31370     0.0000 
     14 CAI        27.1790   78.1790   27.7460 C.2       1 BI31370     0.0000 
     15 CAT        27.9500   77.1160   27.2840 C.2       1 BI31370     0.0000 
     16 OAZ        27.5760   76.1550   26.6150 O.2       1 BI31370     0.0000 
     17 NAU        29.1970   77.3600   27.6830 N.am      1 BI31370     0.0000 
     18 CAV        29.3160   78.4950   28.3720 C.2       1 BI31370     0.0000 
     19 OAX        30.3570   78.9720   28.8250 O.2       1 BI31370     0.0000 
     20 CAJ        28.0340   79.0350   28.4340 C.2       1 BI31370     0.0000 
     21 CAK        27.7260   80.2170   29.1110 C.2       1 BI31370     0.0000 
     22 CAM        26.5630   80.7200   29.6780 C.ar      1 BI31370     0.0000 
     23 CAP        25.3220   80.1590   29.9710 C.ar      1 BI31370     0.0000 
     24 CAQ        24.3180   80.9390   30.5390 C.ar      1 BI31370     0.0000 
     25 CAR        24.5460   82.2840   30.8200 C.ar      1 BI31370     0.0000 
     26 CAS        25.7860   82.8490   30.5360 C.ar      1 BI31370     0.0000 
     27 CAN        26.7840   82.0610   29.9710 C.ar      1 BI31370     0.0000 
     28 NAO        28.0400   82.3060   29.5940 N.pl3     1 BI31370     0.0000 
     29 CAL        28.6100   81.2130   29.0800 C.2       1 BI31370     0.0000 
     30 H          24.0628   81.8078   28.2594 H         1 BI31370     0.0000 
     31 H          24.0860   82.7977   26.7898 H         1 BI31370     0.0000 
     32 H          21.7827   81.8539   26.2535 H         1 BI31370     0.0000 
     33 H          22.0229   80.7193   27.5933 H         1 BI31370     0.0000 
     34 H          23.9941   81.0259   25.2866 H         1 BI31370     0.0000 
     35 H          22.6100   79.9222   25.2078 H         1 BI31370     0.0000 
     36 H          25.8486   80.3693   27.0629 H         1 BI31370     0.0000 
     37 H          21.7467   77.9124   25.9946 H         1 BI31370     0.0000 
     38 H          21.6433   75.5099   26.2866 H         1 BI31370     0.0000 
     39 H          23.5531   74.3207   27.1782 H         1 BI31370     0.0000 
     40 H          25.5572   75.5296   27.7886 H         1 BI31370     0.0000 
     41 H          29.9694   76.7514   27.4853 H         1 BI31370     0.0000 
     42 H          25.1471   79.1660   29.7671 H         1 BI31370     0.0000 
     43 H          23.4020   80.5193   30.7525 H         1 BI31370     0.0000 
     44 H          23.8021   82.8561   31.2350 H         1 BI31370     0.0000 
     45 H          25.9622   83.8368   30.7413 H         1 BI31370     0.0000 
     46 H          28.4905   83.1814   29.6830 H         1 BI31370     0.0000 
     47 H          29.5200   81.1558   28.7399 H         1 BI31370     0.0000 
     48 H          22.8064   84.2752   27.8664 H         1 BI31370     0.0000 
     49 H          21.6389   83.1896   28.0779 H         1 BI31370     0.0000 
     50 H          22.7786   83.3733   29.1975 H         1 BI31370     0.0000 
@<TRIPOS>BOND
     1    2    1 1    
     2   48    1 1    
     3   49    1 1    
     4   50    1 1    
     5    3    2 1    
     6   30    2 1    
     7   31    2 1    
     8    4    3 1    
     9   32    3 1    
    10   33    3 1    
    11    5    4 1    
    12   34    4 1    
    13   35    4 1    
    14    6    5 1    
    15    7    5 1    
    16   13    6 2    
    17   36    6 1    
    18    8    7 ar   
    19   12    7 ar   
    20    9    8 ar   
    21   37    8 1    
    22   10    9 ar   
    23   38    9 1    
    24   11   10 ar   
    25   39   10 1    
    26   12   11 ar   
    27   40   11 1    
    28   13   12 1    
    29   14   13 1    
    30   15   14 1    
    31   20   14 2    
    32   16   15 2    
    33   17   15 am   
    34   18   17 am   
    35   41   17 1    
    36   19   18 2    
    37   20   18 1    
    38   21   20 1    
    39   22   21 1    
    40   29   21 2    
    41   23   22 ar   
    42   27   22 ar   
    43   24   23 ar   
    44   42   23 1    
    45   25   24 ar   
    46   43   24 1    
    47   26   25 ar   
    48   44   25 1    
    49   27   26 ar   
    50   45   26 1    
    51   28   27 1    
    52   29   28 1    
    53   46   28 1    
    54   47   29 1    
@<TRIPOS>SUBSTRUCTURE
     1 BI31370     1 GROUP   
@<TRIPOS>SET

