#    Name: 1o86_LPR_1_INTS_M
#    Modification time : Mon Mar 24 19:46:33 2014

@<TRIPOS>MOLECULE
1o86_LPR_1_INTS_M
   79     0    18     0     0
SMALL
NO_CHARGES


@<TRIPOS>ATOM
      1 Zn         43.5950   37.2205   47.4905 Zn        5 ZIC7        0.0000 
      2 Zn         43.3690   36.2010   48.2690 Zn       17 ZIL7        0.0000 
      3 Zn         43.8210   38.2400   46.7120 Zn       11 ZIP7        0.0000 
      4 N          44.2640   35.1945   48.3140 N.am      2 SEC2        0.0000 
      5 N          43.3690   36.2010   48.2690 N.am     14 SEL2        0.0000 
      6 N          45.1590   34.1880   48.3590 N.am      8 SEP2        0.0000 
      7 Zn         42.8800   37.7615   46.8905 Zn        5 ZIC7        0.0000 
      8 Zn         41.9390   37.2830   47.0690 Zn       17 ZIL7        0.0000 
      9 N          40.7555   37.4220   46.3585 N.am      2 SEC2        0.0000 
     10 N          41.9390   37.2830   47.0690 N.am     14 SEL2        0.0000 
     11 N          39.5720   37.5610   45.6480 N.am      8 SEP2        0.0000 
     12 CA         41.3545   34.6765   50.7915 C.3       6 GLC5        0.0000 
     13 CA         40.5860   35.3650   48.9320 C.3      18 GLL5        0.0000 
     14 CA         42.1230   33.9880   52.6510 C.3      12 GLP5        0.0000 
     15 CA         37.9365   34.6300   49.1930 C.3       6 GLC5        0.0000 
     16 CA         39.4080   36.2990   49.1630 C.3      18 GLL5        0.0000 
     17 CA         36.4650   32.9610   49.2230 C.3      12 GLP5        0.0000 
     18 CA         37.7885   37.4465   48.6810 C.3       6 GLC5        0.0000 
     19 CA         36.1690   38.5940   48.1990 C.3      12 GLP5        0.0000 
     20 OD1        42.4165   26.5220   44.8465 O.co2     3 ASC3        0.0000 
     21 OD1        43.3290   27.7740   44.0870 O.co2    15 ASL3        0.0000 
     22 OD1        41.5040   25.2700   45.6060 O.co2     9 ASP3        0.0000 
     23 O          42.4165   26.5220   44.8465 O.2       1 ALC1        0.0000 
     24 O          43.3290   27.7740   44.0870 O.2      13 ALL1        0.0000 
     25 O          41.5040   25.2700   45.6060 O.2       7 ALP1        0.0000 
     26 CA         44.2920   35.1140   45.8545 C.3       6 GLC5        0.0000 
     27 CA         42.6120   33.8520   45.9430 C.3      18 GLL5        0.0000 
     28 CA         45.9720   36.3760   45.7660 C.3      12 GLP5        0.0000 
     29 N          39.8360   32.8855   46.1005 N.am      2 SEC2        0.0000 
     30 N          40.2910   33.7430   45.1200 N.am     14 SEL2        0.0000 
     31 N          39.3810   32.0280   47.0810 N.am      8 SEP2        0.0000 
     32 CA         45.1290   31.6390   45.9490 C.3       6 GLC5        0.0000 
     33 CA         43.2520   32.4730   45.7840 C.3      18 GLL5        0.0000 
     34 CA         47.0060   30.8050   46.1140 C.3      12 GLP5        0.0000 
     35 CA         40.9800   31.4345   46.9630 C.3       6 GLC5        0.0000 
     36 CA         42.4840   31.2480   45.5360 C.3      18 GLL5        0.0000 
     37 CA         39.4760   31.6210   48.3900 C.3      12 GLP5        0.0000 
     38 CA         43.9795   30.2770   46.9615 C.3       6 GLC5        0.0000 
     39 CA         43.2960   30.0620   44.8420 C.3      18 GLL5        0.0000 
     40 CA         44.6630   30.4920   49.0810 C.3      12 GLP5        0.0000 
     41 CA         45.1390   30.0660   44.2765 C.3       6 GLC5        0.0000 
     42 CA         46.9820   30.0700   43.7110 C.3      12 GLP5        0.0000 
     43 NZ         37.8760   32.2890   41.6370 N.4       4 LYC4        0.0000 
     44 NZ         38.8430   33.3680   41.8670 N.4      16 LYL4        0.0000 
     45 NZ         36.9090   31.2100   41.4070 N.4      10 LYP4        0.0000 
     46 N          39.2320   32.4890   40.5750 N.am      2 SEC2        0.0000 
     47 N          38.8430   33.3680   41.8670 N.am     14 SEL2        0.0000 
     48 N          39.6210   31.6100   39.2830 N.am      8 SEP2        0.0000 
     49 N          37.8760   32.2890   41.6370 N.am      2 SEC2        0.0000 
     50 N          36.9090   31.2100   41.4070 N.am      8 SEP2        0.0000 
     51 N          38.3185   34.1615   41.0135 N.am      2 SEC2        0.0000 
     52 N          37.7940   34.9550   40.1600 N.am      8 SEP2        0.0000 
     53 N          40.1620   31.9410   40.8045 N.am      2 SEC2        0.0000 
     54 N          40.7030   32.2720   42.3260 N.am     14 SEL2        0.0000 
     55 CA         40.7980   36.4570   43.1530 C.3       6 GLC5        0.0000 
     56 CA         40.7150   34.6850   42.5590 C.3      18 GLL5        0.0000 
     57 CA         40.8810   38.2290   43.7470 C.3      12 GLP5        0.0000 
     58 CA         40.7905   35.7960   39.7300 C.3       6 GLC5        0.0000 
     59 CA         41.5050   35.2370   41.3530 C.3      18 GLL5        0.0000 
     60 CA         40.0760   36.3550   38.1070 C.3      12 GLP5        0.0000 
     61 CA         44.5550   35.6660   44.4140 C.3       6 GLC5        0.0000 
     62 CA         43.1380   34.9560   43.0620 C.3      18 GLL5        0.0000 
     63 CA         42.0095   36.5925   43.4045 C.3       6 GLC5        0.0000 
     64 CA         40.2133   33.4180   48.3485 C.3       6 GLC5        0.0000 
     65 CA         41.3150   35.0650   47.6820 C.3      18 GLL5        0.0000 
     66 CA         36.8822   36.4543   50.4140 C.3       6 GLC5        0.0000 
     67 CA         38.5660   35.2060   51.3310 C.3      18 GLL5        0.0000 
     68 CA         35.0580   37.1050   49.8880 C.3      12 GLP5        0.0000 
     69 CA         40.2070   34.6253   52.3222 C.3       6 GLC5        0.0000 
     70 CA         36.4672   36.5390   51.4125 C.3       6 GLC5        0.0000 
     71 CA         38.0160   35.3190   52.6560 C.3      18 GLL5        0.0000 
     72 CA         36.6745   37.4355   50.8327 C.3       6 GLC5        0.0000 
     73 CA         38.0140   37.8220   52.4430 C.3      18 GLL5        0.0000 
     74 CA         43.7655   31.1763   47.3705 C.3       6 GLC5        0.0000 
     75 CA         41.5478   36.9865   41.9688 C.3       6 GLC5        0.0000 
     76 CA         42.8260   35.3690   41.6800 C.3      18 GLL5        0.0000 
     77 CA         40.9300   38.6700   42.4210 C.3      12 GLP5        0.0000 
     78 CA         44.7935   34.9597   41.4665 C.3       6 GLC5        0.0000 
     79 CA         46.6050   34.7570   40.5620 C.3      12 GLP5        0.0000 
@<TRIPOS>BOND
@<TRIPOS>SUBSTRUCTURE
     1 ALC1       23 GROUP        1 X    ALC  0     ROOT ALC X 1
     2 SEC2        4 GROUP        1 X    SEC  0     **** SEC X 2
     3 ASC3       20 GROUP        1 X    ASC  0     **** ASC X 3
     4 LYC4       43 GROUP        1 X    LYC  0     **** LYC X 4
     5 ZIC7        1 GROUP        1 X    ZIC  0     **** ZIC X 5
     6 GLC5       12 GROUP        1 X    GLC  0     **** GLC X 6
     7 ALP1       25 GROUP        1 Y    ALP  0     ROOT ALP Y 8
     8 SEP2        6 GROUP        1 Y    SEP  0     **** SEP Y 9
     9 ASP3       22 GROUP        1 Y    ASP  0     **** ASP Y 10
    10 LYP4       45 GROUP        1 Y    LYP  0     **** LYP Y 11
    11 ZIP7        3 GROUP        1 Y    ZIP  0     **** ZIP Y 12
    12 GLP5       14 GROUP        1 Y    GLP  0     **** GLP Y 13
    13 ALL1       24 GROUP        1 Z    ALL  0     ROOT ALL Z 15
    14 SEL2        5 GROUP        1 Z    SEL  0     **** SEL Z 16
    15 ASL3       21 GROUP        1 Z    ASL  0     **** ASL Z 17
    16 LYL4       44 GROUP        1 Z    LYL  0     **** LYL Z 18
    17 ZIL7        2 GROUP        1 Z    ZIL  0     **** ZIL Z 19
    18 GLL5       13 GROUP        1 Z    GLL  0     **** GLL Z 20
@<TRIPOS>SET

