#    Name: 1o86_LPR_1_ligand
#    Modification time : Mon Mar 24 19:46:33 2014

@<TRIPOS>MOLECULE
1o86_LPR_1_ligand
   58    59     1     0     0
SMALL
NO_CHARGES


@<TRIPOS>ATOM
      1 O2         43.3690   36.2010   48.2690 O.co2     1 LPR702      0.0000 
      2 O3         41.9390   37.2830   47.0690 O.co2     1 LPR702      0.0000 
      3 C3         42.2590   36.2670   47.6540 C.2       1 LPR702      0.0000 
      4 C4         41.3150   35.0650   47.6820 C.3       1 LPR702      0.0000 
      5 C14        40.5860   35.3650   48.9320 C.3       1 LPR702      0.0000 
      6 C15        39.4080   36.2990   49.1630 C.3       1 LPR702      0.0000 
      7 C16        38.8470   36.4010   50.5490 C.ar      1 LPR702      0.0000 
      8 C17        38.5660   35.2060   51.3310 C.ar      1 LPR702      0.0000 
      9 C18        38.0160   35.3190   52.6560 C.ar      1 LPR702      0.0000 
     10 C19        37.7370   36.6270   53.2180 C.ar      1 LPR702      0.0000 
     11 C20        38.0140   37.8220   52.4430 C.ar      1 LPR702      0.0000 
     12 C21        38.5680   37.7100   51.1120 C.ar      1 LPR702      0.0000 
     13 N1         41.8970   34.0630   47.2660 N.4       1 LPR702      0.0000 
     14 N3         43.3290   27.7740   44.0870 N.4       1 LPR702      0.0000 
     15 C1         41.5020   34.0520   44.8400 C.2       1 LPR702      0.0000 
     16 C2         42.6120   33.8520   45.9430 C.3       1 LPR702      0.0000 
     17 O1         40.2910   33.7430   45.1200 O.2       1 LPR702      0.0000 
     18 C10        43.2520   32.4730   45.7840 C.3       1 LPR702      0.0000 
     19 C11        42.4840   31.2480   45.5360 C.3       1 LPR702      0.0000 
     20 C12        43.2960   30.0620   44.8420 C.3       1 LPR702      0.0000 
     21 C13        42.4870   28.8950   44.6290 C.3       1 LPR702      0.0000 
     22 O4         38.8430   33.3680   41.8670 O.co2     1 LPR702      0.0000 
     23 O5         40.7030   32.2720   42.3260 O.co2     1 LPR702      0.0000 
     24 N2         41.8100   34.5330   43.5990 N.am      1 LPR702      0.0000 
     25 C5         40.7150   34.6850   42.5590 C.3       1 LPR702      0.0000 
     26 C6         41.5050   35.2370   41.3530 C.3       1 LPR702      0.0000 
     27 C7         42.8260   35.3690   41.6800 C.3       1 LPR702      0.0000 
     28 C8         43.1380   34.9560   43.0620 C.3       1 LPR702      0.0000 
     29 C9         40.0810   33.2840   42.2240 C.2       1 LPR702      0.0000 
     30 H          40.5410   35.4875   46.8557 H         1 LPR702      0.0000 
     31 H          41.3926   35.6609   49.7454 H         1 LPR702      0.0000 
     32 H          40.2717   34.3299   49.4112 H         1 LPR702      0.0000 
     33 H          38.5836   36.0012   48.4572 H         1 LPR702      0.0000 
     34 H          39.7044   37.3268   48.8133 H         1 LPR702      0.0000 
     35 H          38.7606   34.2959   50.9352 H         1 LPR702      0.0000 
     36 H          37.8221   34.4894   53.1997 H         1 LPR702      0.0000 
     37 H          37.3513   36.7057   54.1456 H         1 LPR702      0.0000 
     38 H          37.8190   38.7314   52.8353 H         1 LPR702      0.0000 
     39 H          38.7617   38.5402   50.5723 H         1 LPR702      0.0000 
     40 H          43.3333   34.6248   45.7950 H         1 LPR702      0.0000 
     41 H          43.9183   32.3124   46.7118 H         1 LPR702      0.0000 
     42 H          44.0578   32.5785   44.9654 H         1 LPR702      0.0000 
     43 H          41.6095   31.4470   44.8838 H         1 LPR702      0.0000 
     44 H          42.0751   30.8322   46.4792 H         1 LPR702      0.0000 
     45 H          44.1569   29.8604   45.4969 H         1 LPR702      0.0000 
     46 H          43.6907   30.4747   43.9015 H         1 LPR702      0.0000 
     47 H          42.0217   28.5586   45.5662 H         1 LPR702      0.0000 
     48 H          41.6774   29.0988   43.9141 H         1 LPR702      0.0000 
     49 H          40.0071   35.3646   42.8647 H         1 LPR702      0.0000 
     50 H          41.0232   36.1911   41.0764 H         1 LPR702      0.0000 
     51 H          41.3267   34.5370   40.5181 H         1 LPR702      0.0000 
     52 H          43.1848   36.4281   41.5537 H         1 LPR702      0.0000 
     53 H          43.4892   34.7756   40.9911 H         1 LPR702      0.0000 
     54 H          43.8121   34.1278   43.0646 H         1 LPR702      0.0000 
     55 H          43.5125   35.7815   43.6264 H         1 LPR702      0.0000 
     56 H          43.7570   28.0182   43.2168 H         1 LPR702      0.0000 
     57 H          44.0653   27.5249   44.7161 H         1 LPR702      0.0000 
     58 H          42.7888   26.9479   43.9263 H         1 LPR702      0.0000 
@<TRIPOS>BOND
     1    3    1 ar   
     2    3    2 ar   
     3    4    3 1    
     4    5    4 1    
     5   13    4 1    
     6   30    4 1    
     7    6    5 1    
     8   31    5 1    
     9   32    5 1    
    10    7    6 1    
    11   33    6 1    
    12   34    6 1    
    13    8    7 ar   
    14   12    7 ar   
    15    9    8 ar   
    16   35    8 1    
    17   10    9 ar   
    18   36    9 1    
    19   11   10 ar   
    20   37   10 1    
    21   12   11 ar   
    22   38   11 1    
    23   39   12 1    
    24   16   13 1    
    25   21   14 1    
    26   56   14 1    
    27   57   14 1    
    28   58   14 1    
    29   16   15 1    
    30   17   15 2    
    31   24   15 am   
    32   18   16 1    
    33   40   16 1    
    34   19   18 1    
    35   41   18 1    
    36   42   18 1    
    37   20   19 1    
    38   43   19 1    
    39   44   19 1    
    40   21   20 1    
    41   45   20 1    
    42   46   20 1    
    43   47   21 1    
    44   48   21 1    
    45   29   22 ar   
    46   29   23 ar   
    47   25   24 1    
    48   28   24 1    
    49   26   25 1    
    50   29   25 1    
    51   49   25 1    
    52   27   26 1    
    53   50   26 1    
    54   51   26 1    
    55   28   27 1    
    56   52   27 1    
    57   53   27 1    
    58   54   28 1    
    59   55   28 1    
@<TRIPOS>SUBSTRUCTURE
     1 LPR702      1 GROUP   
@<TRIPOS>SET

