#    Name: 3czr_3CZ_1_INTS_M
#    Modification time : Mon Mar 24 22:31:43 2014

@<TRIPOS>MOLECULE
3czr_3CZ_1_INTS_M
   58     0     6     0     0
SMALL
NO_CHARGES


@<TRIPOS>ATOM
      1 CA         59.9500  -26.0655   56.6185 C.3       2 GLC5        0.0000 
      2 CA         60.4610  -24.1790   56.8490 C.3       6 GLL5        0.0000 
      3 CA         59.4390  -27.9520   56.3880 C.3       4 GLP5        0.0000 
      4 CA         63.6040  -22.6590   54.1120 C.3       2 GLC5        0.0000 
      5 CA         62.0160  -23.6310   55.0470 C.3       6 GLL5        0.0000 
      6 CA         65.1920  -21.6870   53.1770 C.3       4 GLP5        0.0000 
      7 CA         61.6955  -21.9570   52.7930 C.3       2 GLC5        0.0000 
      8 CA         60.9880  -23.0720   54.3330 C.3       6 GLL5        0.0000 
      9 CA         62.4030  -20.8420   51.2530 C.3       4 GLP5        0.0000 
     10 CA         57.5805  -21.9875   56.5880 C.3       2 GLC5        0.0000 
     11 CA         57.3130  -22.4170   54.6500 C.3       6 GLL5        0.0000 
     12 CA         57.8480  -21.5580   58.5260 C.3       4 GLP5        0.0000 
     13 CA         54.7335  -21.1465   55.4640 C.3       2 GLC5        0.0000 
     14 CA         56.6050  -21.1240   54.2220 C.3       6 GLL5        0.0000 
     15 CA         52.8620  -21.1690   56.7060 C.3       4 GLP5        0.0000 
     16 CA         56.4055  -18.3250   53.8770 C.3       2 GLC5        0.0000 
     17 CA         57.1460  -19.8760   54.9330 C.3       6 GLL5        0.0000 
     18 CA         55.6650  -16.7740   52.8210 C.3       4 GLP5        0.0000 
     19 CA         58.7990  -19.0500   54.0520 C.3       2 GLC5        0.0000 
     20 CA         60.4520  -18.2240   53.1710 C.3       4 GLP5        0.0000 
     21 CA         57.4970  -20.7170   56.7295 C.3       2 GLC5        0.0000 
     22 CA         59.8330  -23.1860   51.0915 C.3       2 GLC5        0.0000 
     23 CA         58.7630  -22.3430   52.6440 C.3       6 GLL5        0.0000 
     24 CA         60.9030  -24.0290   49.5390 C.3       4 GLP5        0.0000 
     25 CA         58.2965  -21.1470   50.1105 C.3       2 GLC5        0.0000 
     26 CA         58.0520  -21.0740   52.1740 C.3       6 GLL5        0.0000 
     27 CA         58.5410  -21.2200   48.0470 C.3       4 GLP5        0.0000 
     28 N          56.6050  -20.0720   49.3620 N.am      1 SEC2        0.0000 
     29 N          55.8890  -21.0080   50.4600 N.am      5 SEL2        0.0000 
     30 N          57.3210  -19.1360   48.2640 N.am      3 SEP2        0.0000 
     31 CA         55.1455  -29.6365   48.9750 C.3       2 GLC5        0.0000 
     32 CA         54.8560  -28.1760   50.5200 C.3       6 GLL5        0.0000 
     33 CA         55.4350  -31.0970   47.4300 C.3       4 GLP5        0.0000 
     34 CA         54.7875  -27.2415   48.7340 C.3       2 GLC5        0.0000 
     35 CA         54.7190  -26.3070   46.9480 C.3       4 GLP5        0.0000 
     36 CA         58.3425  -27.5345   53.2185 C.3       2 GLC5        0.0000 
     37 CA         56.6190  -27.9590   52.3250 C.3       6 GLL5        0.0000 
     38 CA         60.0660  -27.1100   54.1120 C.3       4 GLP5        0.0000 
     39 CA         58.2655  -27.0590   51.4395 C.3       2 GLC5        0.0000 
     40 CA         59.9120  -26.1590   50.5540 C.3       4 GLP5        0.0000 
     41 CA         52.7480  -28.2605   54.3165 C.3       2 GLC5        0.0000 
     42 CA         54.1980  -28.0600   52.9380 C.3       6 GLL5        0.0000 
     43 CA         51.2980  -28.4610   55.6950 C.3       4 GLP5        0.0000 
     44 CA         54.6575  -29.3440   54.3030 C.3       2 GLC5        0.0000 
     45 CA         55.1170  -30.6280   55.6680 C.3       4 GLP5        0.0000 
     46 CA         62.7290  -25.3788   54.4428 C.3       2 GLC5        0.0000 
     47 CA         61.7460  -24.1780   56.2920 C.3       6 GLL5        0.0000 
     48 CA         63.5770  -26.8530   53.2160 C.3       4 GLP5        0.0000 
     49 CA         58.8315  -22.5153   57.0934 C.3       2 GLC5        0.0000 
     50 CA         59.6810  -23.0500   54.8390 C.3       6 GLL5        0.0000 
     51 CA         59.9532  -20.7033   51.9850 C.3       2 GLC5        0.0000 
     52 CA         61.4990  -19.6980   51.5610 C.3       4 GLP5        0.0000 
     53 CA         53.7695  -24.0855   54.6855 C.3       2 GLC5        0.0000 
     54 CA         54.3800  -23.8110   52.6820 C.3       6 GLL5        0.0000 
     55 CA         53.1740  -23.6590   56.6860 C.3       4 GLP5        0.0000 
     56 CA         58.0222  -25.3865   50.7888 C.3       2 GLC5        0.0000 
     57 CA         56.1580  -23.9150   51.0050 C.3       6 GLL5        0.0000 
     58 CA         60.2814  -25.2597   54.6757 C.3       2 GLC5        0.0000 
@<TRIPOS>BOND
@<TRIPOS>SUBSTRUCTURE
     1 SEC2       28 GROUP        1 X    SEC  0     ROOT SEC X 2
     2 GLC5        1 GROUP        1 X    GLC  0     **** GLC X 6
     3 SEP2       30 GROUP        1 Y    SEP  0     ROOT SEP Y 9
     4 GLP5        3 GROUP        1 Y    GLP  0     **** GLP Y 13
     5 SEL2       29 GROUP        1 Z    SEL  0     ROOT SEL Z 16
     6 GLL5        2 GROUP        1 Z    GLL  0     **** GLL Z 20
@<TRIPOS>SET

