#    Name: 3czr_3CZ_1_ligand
#    Modification time : Mon Mar 24 22:31:43 2014

@<TRIPOS>MOLECULE
3czr_3CZ_1_ligand
   56    58     1     0     0
SMALL
NO_CHARGES


@<TRIPOS>ATOM
      1 O3         64.0090  -24.5730   56.6100 O.2       1 3CZ293      0.0000 
      2 N2         62.8510  -24.7660   57.0190 N.pl3     1 3CZ293      0.0000 
      3 O4         62.5510  -25.4110   58.0190 O.2       1 3CZ293      0.0000 
      4 C5         61.7460  -24.1780   56.2920 C.ar      1 3CZ293      0.0000 
      5 C12        60.4610  -24.1790   56.8490 C.ar      1 3CZ293      0.0000 
      6 C14        59.4370  -23.6110   56.1160 C.ar      1 3CZ293      0.0000 
      7 C13        62.0160  -23.6310   55.0470 C.ar      1 3CZ293      0.0000 
      8 C15        60.9880  -23.0720   54.3330 C.ar      1 3CZ293      0.0000 
      9 C6         59.6810  -23.0500   54.8390 C.ar      1 3CZ293      0.0000 
     10 N3         58.6740  -22.4400   54.1060 N.3       1 3CZ293      0.0000 
     11 C4         57.3130  -22.4170   54.6500 C.3       1 3CZ293      0.0000 
     12 C1         56.6050  -21.1240   54.2220 C.3       1 3CZ293      0.0000 
     13 C22        57.1460  -19.8760   54.9330 C.3       1 3CZ293      0.0000 
     14 C7         58.7630  -22.3430   52.6440 C.3       1 3CZ293      0.0000 
     15 C2         58.0520  -21.0740   52.1740 C.3       1 3CZ293      0.0000 
     16 N1         56.7100  -20.9840   52.7420 N.pl3     1 3CZ293      0.0000 
     17 S1         55.4110  -21.3650   51.7930 S.o2      1 3CZ293      0.0000 
     18 O1         55.8890  -21.0080   50.4600 O.2       1 3CZ293      0.0000 
     19 O2         54.1780  -20.8430   52.4010 O.2       1 3CZ293      0.0000 
     20 C3         55.2980  -23.1650   51.8280 C.ar      1 3CZ293      0.0000 
     21 C10        54.3800  -23.8110   52.6820 C.ar      1 3CZ293      0.0000 
     22 C17        54.3500  -25.2130   52.6880 C.ar      1 3CZ293      0.0000 
     23 C11        56.1580  -23.9150   51.0050 C.ar      1 3CZ293      0.0000 
     24 C16        56.1070  -25.3130   51.0420 C.ar      1 3CZ293      0.0000 
     25 C9         55.1950  -25.9890   51.8700 C.ar      1 3CZ293      0.0000 
     26 C8         55.1930  -27.5320   51.8950 C.3       1 3CZ293      0.0000 
     27 C21        54.8560  -28.1760   50.5200 C.3       1 3CZ293      0.0000 
     28 C20        56.6190  -27.9590   52.3250 C.3       1 3CZ293      0.0000 
     29 C19        54.1980  -28.0600   52.9380 C.3       1 3CZ293      0.0000 
     30 H          60.2965  -24.5863   57.7628 H         1 3CZ293      0.0000 
     31 H          58.4758  -23.5878   56.4911 H         1 3CZ293      0.0000 
     32 H          62.9697  -23.6478   54.6734 H         1 3CZ293      0.0000 
     33 H          61.1668  -22.6541   53.3998 H         1 3CZ293      0.0000 
     34 H          57.3275  -22.4526   55.7400 H         1 3CZ293      0.0000 
     35 H          56.7307  -23.2623   54.2812 H         1 3CZ293      0.0000 
     36 H          55.5447  -21.2290   54.4814 H         1 3CZ293      0.0000 
     37 H          58.2871  -23.2004   52.1685 H         1 3CZ293      0.0000 
     38 H          59.8027  -22.2948   52.3208 H         1 3CZ293      0.0000 
     39 H          58.0121  -21.0912   51.0774 H         1 3CZ293      0.0000 
     40 H          58.6613  -20.2111   52.4717 H         1 3CZ293      0.0000 
     41 H          53.7607  -23.2734   53.2736 H         1 3CZ293      0.0000 
     42 H          53.6810  -25.7002   53.3179 H         1 3CZ293      0.0000 
     43 H          56.8151  -23.4383   50.3847 H         1 3CZ293      0.0000 
     44 H          56.7522  -25.8616   50.4492 H         1 3CZ293      0.0000 
     45 H          58.1190  -19.7362   54.7491 H         1 3CZ293      0.0000 
     46 H          56.6703  -19.0464   54.6406 H         1 3CZ293      0.0000 
     47 H          57.0415  -19.9394   55.9255 H         1 3CZ293      0.0000 
     48 H          55.5128  -27.9101   49.8144 H         1 3CZ293      0.0000 
     49 H          54.8635  -29.1749   50.5659 H         1 3CZ293      0.0000 
     50 H          53.9503  -27.9043   50.1947 H         1 3CZ293      0.0000 
     51 H          57.3143  -27.6259   51.6881 H         1 3CZ293      0.0000 
     52 H          56.8560  -27.6044   53.2295 H         1 3CZ293      0.0000 
     53 H          56.7121  -28.9538   52.3666 H         1 3CZ293      0.0000 
     54 H          54.1864  -29.0595   52.9676 H         1 3CZ293      0.0000 
     55 H          54.4220  -27.7421   53.8593 H         1 3CZ293      0.0000 
     56 H          53.2634  -27.7616   52.7441 H         1 3CZ293      0.0000 
@<TRIPOS>BOND
     1    2    1 2    
     2    3    2 2    
     3    4    2 1    
     4    5    4 ar   
     5    7    4 ar   
     6    6    5 ar   
     7   30    5 1    
     8    9    6 ar   
     9   31    6 1    
    10    8    7 ar   
    11   32    7 1    
    12    9    8 ar   
    13   33    8 1    
    14   10    9 1    
    15   11   10 1    
    16   14   10 1    
    17   12   11 1    
    18   34   11 1    
    19   35   11 1    
    20   13   12 1    
    21   16   12 1    
    22   36   12 1    
    23   45   13 1    
    24   46   13 1    
    25   47   13 1    
    26   15   14 1    
    27   37   14 1    
    28   38   14 1    
    29   16   15 1    
    30   39   15 1    
    31   40   15 1    
    32   17   16 1    
    33   18   17 2    
    34   19   17 2    
    35   20   17 1    
    36   21   20 ar   
    37   23   20 ar   
    38   22   21 ar   
    39   41   21 1    
    40   25   22 ar   
    41   42   22 1    
    42   24   23 ar   
    43   43   23 1    
    44   25   24 ar   
    45   44   24 1    
    46   26   25 1    
    47   27   26 1    
    48   28   26 1    
    49   29   26 1    
    50   48   27 1    
    51   49   27 1    
    52   50   27 1    
    53   51   28 1    
    54   52   28 1    
    55   53   28 1    
    56   54   29 1    
    57   55   29 1    
    58   56   29 1    
@<TRIPOS>SUBSTRUCTURE
     1 3CZ293      1 GROUP   
@<TRIPOS>SET

