#    Name: 3T87_1_CAVITY_N1_6.mol2
#    Modification time : Tue Mar 11 02:53:07 2014

@<TRIPOS>MOLECULE
3T87_1_CAVITY_N1_6.mol2
  105     0     7     0     0
SMALL
NO_CHARGES


@<TRIPOS>ATOM
      1 O           9.8086   44.8752   -2.7059 O.2       2 ALA2        0.0000 
      2 N           8.6058   45.2163   -1.8771 N.2       2 ALA2        0.0000 
      3 CA         14.9279   42.7956   -7.9943 C.3       6 GLY6        0.0000 
      4 O          13.7251   43.1367   -7.1655 O.2       2 ALA2        0.0000 
      5 DU          7.7111   44.8423   -3.0215 H         7 CUB7        0.0000 
      6 DU         12.8305   42.7628   -8.3100 H         7 CUB7        0.0000 
      7 O          11.6277   43.1039   -7.4812 O.2       2 ALA2        0.0000 
      8 O           9.5302   43.0710   -7.7968 O.2       2 ALA2        0.0000 
      9 O           8.3274   43.4121   -6.9680 O.2       2 ALA2        0.0000 
     10 N           9.7550   43.4631   -2.2025 N.2       2 ALA2        0.0000 
     11 N           8.5522   43.8042   -1.3737 N.2       2 ALA2        0.0000 
     12 CZ          7.3494   44.1454   -0.5449 C.ar      5 PHE5        0.0000 
     13 CA         13.6715   41.7247   -6.6622 C.3       6 GLY6        0.0000 
     14 O           8.8603   43.0892   -3.3470 O.2       2 ALA2        0.0000 
     15 DU          7.6575   43.4303   -2.5182 H         7 CUB7        0.0000 
     16 CA          6.4547   43.7714   -1.6894 C.3       6 GLY6        0.0000 
     17 CA          5.2519   44.1125   -0.8606 C.3       6 GLY6        0.0000 
     18 N          16.3853   40.3274  -10.2930 N.2       2 ALA2        0.0000 
     19 CA         15.1825   40.6685   -9.4642 C.3       6 GLY6        0.0000 
     20 CA         13.9797   41.0096   -8.6354 C.3       6 GLY6        0.0000 
     21 CA         12.7769   41.3507   -7.8066 C.3       6 GLY6        0.0000 
     22 O          11.5741   41.6918   -6.9778 O.2       2 ALA2        0.0000 
     23 O          10.3713   42.0330   -6.1490 O.2       2 ALA2        0.0000 
     24 O           9.1685   42.3741   -5.3202 O.2       2 ALA2        0.0000 
     25 O           7.9657   42.7152   -4.4914 O.2       2 ALA2        0.0000 
     26 DU          6.7629   43.0563   -3.6626 H         7 CUB7        0.0000 
     27 CA          5.5601   43.3974   -2.8338 C.3       6 GLY6        0.0000 
     28 DU         14.2878   40.2945  -10.6087 H         7 CUB7        0.0000 
     29 CZ         13.0850   40.6356   -9.7799 C.ar      5 PHE5        0.0000 
     30 OG         11.8822   40.9768   -8.9511 O.2       1 SER1        0.0000 
     31 OG         10.6794   41.3179   -8.1223 O.2       1 SER1        0.0000 
     32 O           7.0710   42.3412   -5.6359 O.2       2 ALA2        0.0000 
     33 CA          5.8682   42.6823   -4.8071 C.3       6 GLY6        0.0000 
     34 CZ         13.3932   39.9206  -11.7531 C.ar      5 PHE5        0.0000 
     35 N           9.7014   42.0511   -1.6992 N.2       2 ALA2        0.0000 
     36 CZ          8.4986   42.3922   -0.8704 C.ar      5 PHE5        0.0000 
     37 CA          7.2958   42.7333   -0.0416 C.3       6 GLY6        0.0000 
     38 N           8.8067   41.6771   -2.8437 N.2       2 ALA2        0.0000 
     39 CA          7.6039   42.0182   -2.0148 C.3       6 GLY6        0.0000 
     40 CA         15.1289   39.2565   -8.9609 C.3       6 GLY6        0.0000 
     41 CA         13.9261   39.5976   -8.1321 C.3       6 GLY6        0.0000 
     42 N          12.7233   39.9387   -7.3033 N.2       2 ALA2        0.0000 
     43 N          11.5205   40.2798   -6.4745 N.2       2 ALA2        0.0000 
     44 N          10.3177   40.6209   -5.6457 N.2       2 ALA2        0.0000 
     45 N           9.1149   40.9620   -4.8169 N.2       2 ALA2        0.0000 
     46 CA          7.9121   41.3032   -3.9881 C.3       6 GLY6        0.0000 
     47 O           6.7093   41.6443   -3.1593 O.2       2 ALA2        0.0000 
     48 N          15.4370   38.5414  -10.9342 N.2       2 ALA2        0.0000 
     49 N          14.2342   38.8825  -10.1053 N.2       2 ALA2        0.0000 
     50 OG         13.0314   39.2236   -9.2765 O.2       1 SER1        0.0000 
     51 OG         11.8286   39.5647   -8.4477 O.2       1 SER1        0.0000 
     52 OG         10.6258   39.9058   -7.6189 O.2       1 SER1        0.0000 
     53 DU         16.9480   37.4852  -13.7362 H         7 CUB7        0.0000 
     54 N          15.7452   37.8263  -12.9074 N.2       2 ALA2        0.0000 
     55 N          14.5424   38.1674  -12.0786 N.2       2 ALA2        0.0000 
     56 CZ         13.3396   38.5085  -11.2498 C.ar      5 PHE5        0.0000 
     57 DU         14.8505   37.4523  -14.0518 H         7 CUB7        0.0000 
     58 CZ         13.6477   37.7934  -13.2230 C.ar      5 PHE5        0.0000 
     59 CZ         12.4449   38.1346  -12.3942 C.ar      5 PHE5        0.0000 
     60 CA         13.9559   37.0784  -15.1963 C.3       6 GLY6        0.0000 
     61 N           9.6477   40.6391   -1.1959 N.2       2 ALA2        0.0000 
     62 CA          8.4449   40.9802   -0.3671 C.3       6 GLY6        0.0000 
     63 N          11.1587   39.5829   -3.9979 N.2       2 ALA2        0.0000 
     64 N           9.9559   39.9240   -3.1691 N.2       2 ALA2        0.0000 
     65 CA          8.7531   40.2651   -2.3403 C.3       6 GLY6        0.0000 
     66 N          12.6697   38.5267   -6.8000 N.2       2 ALA2        0.0000 
     67 OD1        11.4669   38.8678   -5.9712 O.3       3 ASP3        0.0000 
     68 N          10.2641   39.2089   -5.1424 N.2       2 ALA2        0.0000 
     69 N           9.0613   39.5500   -4.3136 N.2       2 ALA2        0.0000 
     70 O           7.8585   39.8911   -3.4848 O.2       2 ALA2        0.0000 
     71 N          14.1806   37.4705   -9.6020 N.2       2 ALA2        0.0000 
     72 N          12.9778   37.8116   -8.7732 N.2       2 ALA2        0.0000 
     73 OD1        11.7750   38.1527   -7.9444 O.3       3 ASP3        0.0000 
     74 NZ         15.6916   36.4143  -12.4041 N.2       4 LYS4        0.0000 
     75 N          14.4888   36.7554  -11.5753 N.2       2 ALA2        0.0000 
     76 CZ         13.2860   37.0965  -10.7465 C.ar      5 PHE5        0.0000 
     77 OG         12.0832   37.4376   -9.9176 O.2       1 SER1        0.0000 
     78 NZ         15.9997   35.6992  -14.3773 N.2       4 LYS4        0.0000 
     79 NZ         14.7969   36.0403  -13.5485 N.2       4 LYS4        0.0000 
     80 CZ         13.5941   36.3814  -12.7197 C.ar      5 PHE5        0.0000 
     81 CZ         12.3913   36.7225  -11.8909 C.ar      5 PHE5        0.0000 
     82 NZ         15.1051   35.3252  -15.5217 N.2       4 LYS4        0.0000 
     83 NZ         13.9023   35.6663  -14.6929 N.2       4 LYS4        0.0000 
     84 CZ         12.6995   36.0074  -13.8641 C.ar      5 PHE5        0.0000 
     85 CA         10.4888   39.6011    0.4519 C.3       6 GLY6        0.0000 
     86 N          10.7969   38.8860   -1.5213 N.2       2 ALA2        0.0000 
     87 CA          9.5941   39.2271   -0.6925 C.3       6 GLY6        0.0000 
     88 NZ          9.9023   38.5120   -2.6658 N.2       4 LYS4        0.0000 
     89 CA          8.6995   38.8531   -1.8370 C.3       6 GLY6        0.0000 
     90 OD1        10.2104   37.7969   -4.6390 O.3       3 ASP3        0.0000 
     91 O           9.0076   38.1380   -3.8102 O.2       2 ALA2        0.0000 
     92 O           7.8048   38.4791   -2.9814 O.2       2 ALA2        0.0000 
     93 CA         14.4352   35.3434  -11.0719 C.3       6 GLY6        0.0000 
     94 O          13.5405   34.9694  -12.2164 O.2       2 ALA2        0.0000 
     95 CA         10.4352   38.1891    0.9552 C.3       6 GLY6        0.0000 
     96 NZ         10.7433   37.4740   -1.0180 N.2       4 LYS4        0.0000 
     97 CA          9.5405   37.8151   -0.1892 C.3       6 GLY6        0.0000 
     98 CA          8.3377   38.1562    0.6396 C.3       6 GLY6        0.0000 
     99 NZ          9.8487   37.1000   -2.1625 N.2       4 LYS4        0.0000 
    100 CA          8.6459   37.4411   -1.3336 C.3       6 GLY6        0.0000 
    101 N           8.9540   36.7260   -3.3069 N.2       2 ALA2        0.0000 
    102 CA         10.6897   36.0620   -0.5147 C.3       6 GLY6        0.0000 
    103 CA          9.4869   36.4031    0.3141 C.3       6 GLY6        0.0000 
    104 CA          9.7951   35.6880   -1.6591 C.3       6 GLY6        0.0000 
    105 CA          8.5923   36.0291   -0.8303 C.3       6 GLY6        0.0000 
@<TRIPOS>BOND
@<TRIPOS>SUBSTRUCTURE
     1 SER1       30 GROUP   
     2 ALA2        1 GROUP   
     3 ASP3       67 GROUP   
     4 LYS4       74 GROUP   
     5 PHE5       12 GROUP   
     6 GLY6        3 GROUP   
     7 CUB7        5 GROUP   
@<TRIPOS>SET

