#    Name: 3t87_UBZ_1_INTS_M
#    Modification time : Mon Mar 24 19:19:12 2014

@<TRIPOS>MOLECULE
3t87_UBZ_1_INTS_M
   61     0    12     0     0
SMALL
NO_CHARGES


@<TRIPOS>ATOM
      1 CA         16.1670   40.6820   -8.5375 C.3       4 GLC5        0.0000 
      2 CA         16.2320   41.4390  -10.6070 C.3      12 GLL5        0.0000 
      3 CA         16.1020   39.9250   -6.4680 C.3       8 GLP5        0.0000 
      4 CA         12.0280   40.7430  -11.4460 C.3       4 GLC5        0.0000 
      5 CA         13.7350   41.7520  -10.9340 C.3      12 GLL5        0.0000 
      6 CA         10.3210   39.7340  -11.9580 C.3       8 GLP5        0.0000 
      7 O          10.8905   39.5035   -9.0085 O.2       1 ALC1        0.0000 
      8 O          12.1190   40.1830   -8.1370 O.2       9 ALL1        0.0000 
      9 O           9.6620   38.8240   -9.8800 O.2       5 ALP1        0.0000 
     10 CA         14.0685   40.0500   -6.5870 C.3       4 GLC5        0.0000 
     11 CA         12.0350   40.1750   -6.7060 C.3      12 GLL5        0.0000 
     12 N          13.4060   36.8315   -5.5440 N.am      2 SEC2        0.0000 
     13 N          12.6200   37.5940   -6.2550 N.am     10 SEL2        0.0000 
     14 N          14.1920   36.0690   -4.8330 N.am      6 SEP2        0.0000 
     15 Zn         10.0655   37.2040   -6.8175 Zn        3 ZIC7        0.0000 
     16 Zn         10.1880   38.1550   -6.5800 Zn       11 ZIL7        0.0000 
     17 Zn          9.9430   36.2530   -7.0550 Zn        7 ZIP7        0.0000 
     18 N           9.0300   38.9040   -6.9435 N.am      2 SEC2        0.0000 
     19 N          10.1880   38.1550   -6.5800 N.am     10 SEL2        0.0000 
     20 N           7.8720   39.6530   -7.3070 N.am      6 SEP2        0.0000 
     21 CA         10.3455   36.5065   -4.1645 C.3       4 GLC5        0.0000 
     22 CA         10.1480   38.5150   -3.6680 C.3      12 GLL5        0.0000 
     23 CA         10.5430   34.4980   -4.6610 C.3       8 GLP5        0.0000 
     24 N           6.4140   38.7685   -3.7165 N.am      2 SEC2        0.0000 
     25 N           7.8180   38.9140   -3.8880 N.am     10 SEL2        0.0000 
     26 N           5.0100   38.6230   -3.5450 N.am      6 SEP2        0.0000 
     27 N           6.9420   37.7490   -3.6710 N.am      2 SEC2        0.0000 
     28 N           6.0660   36.5840   -3.4540 N.am      6 SEP2        0.0000 
     29 CA          9.3675   39.8400    1.6895 C.3       4 GLC5        0.0000 
     30 CA          9.7360   38.4370    0.1820 C.3      12 GLL5        0.0000 
     31 CA          8.9990   41.2430    3.1970 C.3       8 GLP5        0.0000 
     32 CA         11.1265   39.5585    0.9525 C.3       4 GLC5        0.0000 
     33 CA         12.5170   40.6800    1.7230 C.3       8 GLP5        0.0000 
     34 CA         10.1765   36.9935    1.2890 C.3       4 GLC5        0.0000 
     35 CA         10.6170   35.5500    2.3960 C.3       8 GLP5        0.0000 
     36 CA          9.9285   36.0400    0.5145 C.3       4 GLC5        0.0000 
     37 CA          9.2400   36.5300   -1.3670 C.3      12 GLL5        0.0000 
     38 CA          9.5875   35.0640   -2.6050 C.3       4 GLC5        0.0000 
     39 CA          9.9350   33.5980   -3.8430 C.3       8 GLP5        0.0000 
     40 CA          7.4745   35.6860   -0.7295 C.3       4 GLC5        0.0000 
     41 CA          5.7090   34.8420   -0.0920 C.3       8 GLP5        0.0000 
     42 O          10.5350   41.2825   -3.6295 O.2       1 ALC1        0.0000 
     43 O           9.2000   40.7070   -4.0720 O.2       9 ALL1        0.0000 
     44 O          11.8700   41.8580   -3.1870 O.2       5 ALP1        0.0000 
     45 CA          7.3455   40.4875   -5.5460 C.3       4 GLC5        0.0000 
     46 CA          8.0610   41.6080   -4.2940 C.3      12 GLL5        0.0000 
     47 CA          6.6300   39.3670   -6.7980 C.3       8 GLP5        0.0000 
     48 CA          6.8860   40.8505   -1.6580 C.3       4 GLC5        0.0000 
     49 CA          7.5500   42.1660   -2.9870 C.3      12 GLL5        0.0000 
     50 CA          6.2220   39.5350   -0.3290 C.3       8 GLP5        0.0000 
     51 CA          8.9205   43.1025   -0.1605 C.3       4 GLC5        0.0000 
     52 CA          8.6550   42.9150   -2.3660 C.3      12 GLL5        0.0000 
     53 CA          9.1860   43.2900    2.0450 C.3       8 GLP5        0.0000 
     54 N          10.6020   43.2100   -5.1175 N.am      2 SEC2        0.0000 
     55 N           9.4730   42.6520   -5.9020 N.am     10 SEL2        0.0000 
     56 N          11.7310   43.7680   -4.3330 N.am      6 SEP2        0.0000 
     57 CA         18.9195   39.5987  -10.8270 C.3       4 GLC5        0.0000 
     58 CA         17.4710   41.0120  -11.0590 C.3      12 GLL5        0.0000 
     59 CA         20.3090   38.4910   -9.9730 C.3       8 GLP5        0.0000 
     60 CA          7.8160   38.4599   -0.6391 C.3       4 GLC5        0.0000 
     61 CA          9.4240   38.0420   -1.2450 C.3      12 GLL5        0.0000 
@<TRIPOS>BOND
@<TRIPOS>SUBSTRUCTURE
     1 ALC1        7 GROUP        1 X    ALC  0     ROOT ALC X 1
     2 SEC2       12 GROUP        1 X    SEC  0     **** SEC X 2
     3 ZIC7       15 GROUP        1 X    ZIC  0     **** ZIC X 5
     4 GLC5        1 GROUP        1 X    GLC  0     **** GLC X 6
     5 ALP1        9 GROUP        1 Y    ALP  0     ROOT ALP Y 8
     6 SEP2       14 GROUP        1 Y    SEP  0     **** SEP Y 9
     7 ZIP7       17 GROUP        1 Y    ZIP  0     **** ZIP Y 12
     8 GLP5        3 GROUP        1 Y    GLP  0     **** GLP Y 13
     9 ALL1        8 GROUP        1 Z    ALL  0     ROOT ALL Z 15
    10 SEL2       13 GROUP        1 Z    SEL  0     **** SEL Z 16
    11 ZIL7       16 GROUP        1 Z    ZIL  0     **** ZIL Z 19
    12 GLL5        2 GROUP        1 Z    GLL  0     **** GLL Z 20
@<TRIPOS>SET

