#    Name: 3t87_UBZ_1_ligand
#    Modification time : Mon Mar 24 19:19:12 2014

@<TRIPOS>MOLECULE
3t87_UBZ_1_ligand
   57    57     1     0     0
SMALL
NO_CHARGES


@<TRIPOS>ATOM
      1 C3         15.2050   40.6830  -12.6390 C.ar      1 UBZ317      0.0000 
      2 C2         16.4470   40.2380  -13.0810 C.ar      1 UBZ317      0.0000 
      3 C1         17.5890   40.4010  -12.3030 C.ar      1 UBZ317      0.0000 
      4 C6         17.4710   41.0120  -11.0590 C.ar      1 UBZ317      0.0000 
      5 C5         16.2320   41.4390  -10.6070 C.ar      1 UBZ317      0.0000 
      6 C4         15.0920   41.2740  -11.3940 C.ar      1 UBZ317      0.0000 
      7 C7         13.7350   41.7520  -10.9340 C.3       1 UBZ317      0.0000 
      8 O8         12.8720   40.8870  -10.2030 O.3       1 UBZ317      0.0000 
      9 C9         12.9370   40.9870   -8.7860 C.2       1 UBZ317      0.0000 
     10 O21        13.7490   41.7520   -8.2560 O.2       1 UBZ317      0.0000 
     11 N10        12.1190   40.1830   -8.1370 N.am      1 UBZ317      0.0000 
     12 C11        12.0350   40.1750   -6.7060 C.3       1 UBZ317      0.0000 
     13 P12        11.5380   38.5960   -6.0270 P.3       1 UBZ317      0.0000 
     14 O22        12.6200   37.5940   -6.2550 O.co2     1 UBZ317      0.0000 
     15 O23        10.1880   38.1550   -6.5800 O.co2     1 UBZ317      0.0000 
     16 N13        11.3240   38.9610   -4.4160 N.3       1 UBZ317      0.0000 
     17 C14        10.1480   38.5150   -3.6680 C.3       1 UBZ317      0.0000 
     18 C15         8.9570   39.3990   -3.8990 C.2       1 UBZ317      0.0000 
     19 O24         7.8180   38.9140   -3.8880 O.2       1 UBZ317      0.0000 
     20 C20        10.5130   38.5730   -2.1860 C.3       1 UBZ317      0.0000 
     21 C21         9.4240   38.0420   -1.2450 C.3       1 UBZ317      0.0000 
     22 C22         9.7360   38.4370    0.1820 C.3       1 UBZ317      0.0000 
     23 C23         9.2400   36.5300   -1.3670 C.3       1 UBZ317      0.0000 
     24 N16         9.2000   40.7070   -4.0720 N.am      1 UBZ317      0.0000 
     25 C17         8.0610   41.6080   -4.2940 C.3       1 UBZ317      0.0000 
     26 C18         8.3270   42.5940   -5.3860 C.2       1 UBZ317      0.0000 
     27 O32         7.3590   43.2540   -5.7740 O.co2     1 UBZ317      0.0000 
     28 C25         7.5500   42.1660   -2.9870 C.3       1 UBZ317      0.0000 
     29 C26         8.6550   42.9150   -2.3660 C.3       1 UBZ317      0.0000 
     30 O19         9.4730   42.6520   -5.9020 O.co2     1 UBZ317      0.0000 
     31 H          14.3777   40.5712  -13.2380 H         1 UBZ317      0.0000 
     32 H          16.5229   39.7770  -14.0059 H         1 UBZ317      0.0000 
     33 H          18.4961   40.0782  -12.6390 H         1 UBZ317      0.0000 
     34 H          18.3079   41.1466  -10.4735 H         1 UBZ317      0.0000 
     35 H          16.1480   41.8842   -9.6788 H         1 UBZ317      0.0000 
     36 H          13.1947   42.1501  -11.8630 H         1 UBZ317      0.0000 
     37 H          13.9098   42.7194  -10.3450 H         1 UBZ317      0.0000 
     38 H          11.4896   39.5097   -8.6382 H         1 UBZ317      0.0000 
     39 H          11.2796   40.8396   -6.2801 H         1 UBZ317      0.0000 
     40 H          12.9789   40.3465   -6.1831 H         1 UBZ317      0.0000 
     41 H           9.9053   37.5016   -3.9060 H         1 UBZ317      0.0000 
     42 H          10.7386   39.6180   -1.9125 H         1 UBZ317      0.0000 
     43 H          11.4372   37.9931   -2.0210 H         1 UBZ317      0.0000 
     44 H           8.4795   38.5225   -1.5277 H         1 UBZ317      0.0000 
     45 H          10.1257   41.1214   -4.0600 H         1 UBZ317      0.0000 
     46 H           7.2151   40.9315   -4.6821 H         1 UBZ317      0.0000 
     47 H           7.2374   41.3480   -2.3501 H         1 UBZ317      0.0000 
     48 H           6.7092   42.8192   -3.1847 H         1 UBZ317      0.0000 
     49 H          10.6139   38.0671    0.4863 H         1 UBZ317      0.0000 
     50 H           9.7828   39.4300    0.2907 H         1 UBZ317      0.0000 
     51 H           9.0411   38.1047    0.8197 H         1 UBZ317      0.0000 
     52 H          10.0787   36.0344   -1.1413 H         1 UBZ317      0.0000 
     53 H           8.5259   36.1921   -0.7539 H         1 UBZ317      0.0000 
     54 H           8.9812   36.2610   -2.2947 H         1 UBZ317      0.0000 
     55 H           9.4467   42.3303   -2.1890 H         1 UBZ317      0.0000 
     56 H           8.9688   43.6649   -2.9484 H         1 UBZ317      0.0000 
     57 H           8.3857   43.3166   -1.4907 H         1 UBZ317      0.0000 
@<TRIPOS>BOND
     1    2    1 ar   
     2    6    1 ar   
     3   31    1 1    
     4    3    2 ar   
     5   32    2 1    
     6    4    3 ar   
     7   33    3 1    
     8    5    4 ar   
     9   34    4 1    
    10    6    5 ar   
    11   35    5 1    
    12    7    6 1    
    13    8    7 1    
    14   36    7 1    
    15   37    7 1    
    16    9    8 1    
    17   10    9 2    
    18   11    9 am   
    19   12   11 1    
    20   38   11 1    
    21   13   12 1    
    22   39   12 1    
    23   40   12 1    
    24   14   13 ar   
    25   15   13 ar   
    26   16   13 1    
    27   17   16 1    
    28   18   17 1    
    29   20   17 1    
    30   41   17 1    
    31   19   18 2    
    32   24   18 am   
    33   21   20 1    
    34   42   20 1    
    35   43   20 1    
    36   22   21 1    
    37   23   21 1    
    38   44   21 1    
    39   49   22 1    
    40   50   22 1    
    41   51   22 1    
    42   52   23 1    
    43   53   23 1    
    44   54   23 1    
    45   25   24 1    
    46   45   24 1    
    47   26   25 1    
    48   28   25 1    
    49   46   25 1    
    50   27   26 ar   
    51   30   26 ar   
    52   29   28 1    
    53   47   28 1    
    54   48   28 1    
    55   55   29 1    
    56   56   29 1    
    57   57   29 1    
@<TRIPOS>SUBSTRUCTURE
     1 UBZ317      1 GROUP   
@<TRIPOS>SET

