#    Name: 1kbq_936_2_INTS_M
#    Modification time : Tue Mar 25 09:48:27 2014

@<TRIPOS>MOLECULE
1kbq_936_2_INTS_M
   41     0     3     0     0
SMALL
NO_CHARGES


@<TRIPOS>ATOM
      1 CA        -32.7460  -36.4065  -25.7005 C.3       1 GLC5        0.0000 
      2 CA        -32.0230  -34.9890  -26.8480 C.3       3 GLL5        0.0000 
      3 CA        -33.4690  -37.8240  -24.5530 C.3       2 GLP5        0.0000 
      4 CA        -33.9915  -31.1010  -26.4840 C.3       1 GLC5        0.0000 
      5 CA        -32.2090  -30.3220  -26.2380 C.3       3 GLL5        0.0000 
      6 CA        -35.7740  -31.8800  -26.7300 C.3       2 GLP5        0.0000 
      7 CA        -33.3015  -29.2280  -27.8040 C.3       1 GLC5        0.0000 
      8 CA        -34.3940  -28.1340  -29.3700 C.3       2 GLP5        0.0000 
      9 CA        -33.0800  -28.9160  -25.7740 C.3       1 GLC5        0.0000 
     10 CA        -33.9510  -27.5100  -25.3100 C.3       2 GLP5        0.0000 
     11 CA        -30.8080  -31.2690  -25.2475 C.3       1 GLC5        0.0000 
     12 CA        -29.4070  -32.2160  -24.2570 C.3       2 GLP5        0.0000 
     13 CA        -32.3460  -28.9415  -29.6080 C.3       1 GLC5        0.0000 
     14 CA        -30.9080  -29.2250  -28.7190 C.3       3 GLL5        0.0000 
     15 CA        -33.7840  -28.6580  -30.4970 C.3       2 GLP5        0.0000 
     16 CA        -31.8535  -28.0465  -27.2545 C.3       1 GLC5        0.0000 
     17 CA        -32.7990  -26.8680  -25.7900 C.3       2 GLP5        0.0000 
     18 CA        -29.6045  -27.9660  -28.9980 C.3       1 GLC5        0.0000 
     19 CA        -28.3010  -26.7070  -29.2770 C.3       2 GLP5        0.0000 
     20 CA        -32.6015  -37.7600  -26.0390 C.3       1 GLC5        0.0000 
     21 CA        -31.7340  -37.6960  -27.5250 C.3       3 GLL5        0.0000 
     22 CA        -30.0770  -36.5260  -26.8905 C.3       1 GLC5        0.0000 
     23 CA        -28.4200  -35.3560  -26.2560 C.3       2 GLP5        0.0000 
     24 CA        -30.0808  -35.2657  -26.8507 C.3       1 GLC5        0.0000 
     25 CA        -31.4600  -35.3620  -28.0430 C.3       3 GLL5        0.0000 
     26 CA        -29.0845  -34.2376  -33.2400 C.3       1 GLC5        0.0000 
     27 CA        -31.3980  -34.7990  -34.1030 C.3       3 GLL5        0.0000 
     28 CA        -27.1410  -34.2200  -33.0430 C.3       2 GLP5        0.0000 
     29 CA        -34.7145  -33.5200  -33.9585 C.3       1 GLC5        0.0000 
     30 CA        -32.4940  -34.0150  -34.5110 C.3       3 GLL5        0.0000 
     31 CA        -36.8160  -33.6570  -33.7140 C.3       2 GLP5        0.0000 
     32 CA        -30.3661  -34.0178  -35.3175 C.3       1 GLC5        0.0000 
     33 CA        -28.9990  -33.7440  -36.5810 C.3       2 GLP5        0.0000 
     34 CA        -33.0855  -30.8075  -34.0867 C.3       1 GLC5        0.0000 
     35 CA        -32.7320  -32.7510  -33.8950 C.3       3 GLL5        0.0000 
     36 CA        -33.8620  -29.0930  -34.7990 C.3       2 GLP5        0.0000 
     37 CA        -30.5344  -32.4016  -34.6224 C.3       1 GLC5        0.0000 
     38 CA        -29.0390  -32.0830  -35.9710 C.3       2 GLP5        0.0000 
     39 CA        -29.6981  -32.4733  -27.5845 C.3       1 GLC5        0.0000 
     40 CA        -30.8010  -31.7560  -29.3290 C.3       3 GLL5        0.0000 
     41 CA        -28.1900  -32.9350  -26.7050 C.3       2 GLP5        0.0000 
@<TRIPOS>BOND
@<TRIPOS>SUBSTRUCTURE
     1 GLC5        1 GROUP        1 X    GLC  0     ROOT GLC X 6
     2 GLP5        3 GROUP        1 Y    GLP  0     ROOT GLP Y 13
     3 GLL5        2 GROUP        1 Z    GLL  0     ROOT GLL Z 20
@<TRIPOS>SET

