#    Name: 1kbq_936_2_ligand
#    Modification time : Tue Mar 25 09:48:27 2014

@<TRIPOS>MOLECULE
1kbq_936_2_ligand
   42    44     1     0     0
SMALL
NO_CHARGES


@<TRIPOS>ATOM
      1 C1        -32.0230  -34.9890  -26.8480 C.2       1 936704      0.0000 
      2 C2        -32.1550  -33.5410  -26.5180 C.2       1 936704      0.0000 
      3 C3        -31.7200  -32.6040  -27.3980 C.2       1 936704      0.0000 
      4 C4        -31.1390  -32.9800  -28.6430 C.2       1 936704      0.0000 
      5 C5        -30.9930  -34.2910  -28.9900 C.2       1 936704      0.0000 
      6 C6        -31.4600  -35.3620  -28.0430 C.2       1 936704      0.0000 
      7 N7        -31.7260  -31.2090  -27.3170 N.pl3     1 936704      0.0000 
      8 C8        -31.1650  -30.7060  -28.4860 C.2       1 936704      0.0000 
      9 C9        -30.8010  -31.7560  -29.3290 C.2       1 936704      0.0000 
     10 O10       -30.5000  -34.6330  -30.0310 O.2       1 936704      0.0000 
     11 O11       -32.6590  -33.2260  -25.4380 O.2       1 936704      0.0000 
     12 C12       -32.2090  -30.3220  -26.2380 C.3       1 936704      0.0000 
     13 C19       -30.1540  -31.5260  -30.7280 C.3       1 936704      0.0000 
     14 O20       -29.8640  -32.7310  -31.4050 O.3       1 936704      0.0000 
     15 C24       -30.7690  -33.0860  -32.4510 C.ar      1 936704      0.0000 
     16 C25       -30.5470  -34.3370  -33.0910 C.ar      1 936704      0.0000 
     17 C26       -31.3980  -34.7990  -34.1030 C.ar      1 936704      0.0000 
     18 C27       -32.4940  -34.0150  -34.5110 C.ar      1 936704      0.0000 
     19 C28       -32.7320  -32.7510  -33.8950 C.ar      1 936704      0.0000 
     20 C29       -31.8860  -32.2930  -32.8540 C.ar      1 936704      0.0000 
     21 N34       -33.3250  -34.4870  -35.4870 N.pl3     1 936704      0.0000 
     22 O35       -34.0200  -33.6720  -36.3860 O.2       1 936704      0.0000 
     23 O36       -33.5840  -35.8510  -35.6900 O.2       1 936704      0.0000 
     24 C37       -30.9080  -29.2250  -28.7190 C.3       1 936704      0.0000 
     25 O44       -31.2920  -36.6880  -28.4300 O.3       1 936704      0.0000 
     26 C45       -31.7340  -37.6960  -27.5250 C.3       1 936704      0.0000 
     27 H         -32.3620  -35.6511  -26.1610 H         1 936704      0.0000 
     28 H         -29.2467  -30.9120  -30.5568 H         1 936704      0.0000 
     29 H         -30.8566  -30.8838  -31.2967 H         1 936704      0.0000 
     30 H         -29.7407  -34.9082  -32.7972 H         1 936704      0.0000 
     31 H         -31.2262  -35.7045  -34.5472 H         1 936704      0.0000 
     32 H         -33.5150  -32.1772  -34.2074 H         1 936704      0.0000 
     33 H         -32.0693  -31.4066  -32.3945 H         1 936704      0.0000 
     34 H         -31.7258  -30.4862  -25.3780 H         1 936704      0.0000 
     35 H         -32.0818  -29.3567  -26.4659 H         1 936704      0.0000 
     36 H         -33.1835  -30.4544  -26.0566 H         1 936704      0.0000 
     37 H         -30.2842  -28.8444  -28.0364 H         1 936704      0.0000 
     38 H         -30.4997  -29.0555  -29.6160 H         1 936704      0.0000 
     39 H         -31.7519  -28.6902  -28.6753 H         1 936704      0.0000 
     40 H         -31.5715  -38.6149  -27.8844 H         1 936704      0.0000 
     41 H         -31.2624  -37.6378  -26.6451 H         1 936704      0.0000 
     42 H         -32.7136  -37.6234  -27.3379 H         1 936704      0.0000 
@<TRIPOS>BOND
     1    2    1 1    
     2    6    1 2    
     3   27    1 1    
     4    3    2 1    
     5   11    2 2    
     6    4    3 2    
     7    7    3 1    
     8    5    4 1    
     9    9    4 1    
    10    6    5 1    
    11   10    5 2    
    12   25    6 1    
    13    8    7 1    
    14   12    7 1    
    15    9    8 2    
    16   24    8 1    
    17   13    9 1    
    18   34   12 1    
    19   35   12 1    
    20   36   12 1    
    21   14   13 1    
    22   28   13 1    
    23   29   13 1    
    24   15   14 1    
    25   16   15 ar   
    26   20   15 ar   
    27   17   16 ar   
    28   30   16 1    
    29   18   17 ar   
    30   31   17 1    
    31   19   18 ar   
    32   21   18 1    
    33   20   19 ar   
    34   32   19 1    
    35   33   20 1    
    36   22   21 2    
    37   23   21 2    
    38   37   24 1    
    39   38   24 1    
    40   39   24 1    
    41   26   25 1    
    42   40   26 1    
    43   41   26 1    
    44   42   26 1    
@<TRIPOS>SUBSTRUCTURE
     1 936704      1 GROUP   
@<TRIPOS>SET

