#    Name: 3cp9_C19_2_INTS_M
#    Modification time : Mon Mar 24 22:08:34 2014

@<TRIPOS>MOLECULE
3cp9_C19_2_INTS_M
   91     0     9     0     0
SMALL
NO_CHARGES


@<TRIPOS>ATOM
      1 N          23.3650    7.3335   23.0350 N.am      2 SEC2        0.0000 
      2 N          23.9760    6.0030   22.7250 N.am      8 SEL2        0.0000 
      3 N          22.7540    8.6640   23.3450 N.am      5 SEP2        0.0000 
      4 CA         25.0240    7.7215   22.9735 C.3       3 GLC5        0.0000 
      5 CA         25.0810    6.0110   21.9170 C.3       9 GLL5        0.0000 
      6 CA         24.9670    9.4320   24.0300 C.3       6 GLP5        0.0000 
      7 CA         23.4805    7.3485   21.1085 C.3       3 GLC5        0.0000 
      8 CA         21.8800    8.6860   20.3000 C.3       6 GLP5        0.0000 
      9 CA         25.3680    3.3930   23.9615 C.3       3 GLC5        0.0000 
     10 CA         24.9690    3.5240   21.7990 C.3       9 GLL5        0.0000 
     11 CA         25.7670    3.2620   26.1240 C.3       6 GLP5        0.0000 
     12 CA         24.5895    4.0350   24.5830 C.3       3 GLC5        0.0000 
     13 CA         23.4120    4.8080   23.0420 C.3       9 GLL5        0.0000 
     14 CA         22.2015    6.4360   22.3995 C.3       3 GLC5        0.0000 
     15 CA         20.9910    8.0640   21.7570 C.3       6 GLP5        0.0000 
     16 CA         22.9500    4.8785   21.3535 C.3       3 GLC5        0.0000 
     17 CA         22.4880    4.9490   19.6650 C.3       6 GLP5        0.0000 
     18 CA         26.7800    6.3010   19.3000 C.3       3 GLC5        0.0000 
     19 CA         26.7370    4.7850   20.5910 C.3       9 GLL5        0.0000 
     20 CA         26.8230    7.8170   18.0090 C.3       6 GLP5        0.0000 
     21 O          21.3980    5.9430   24.1140 O.2       1 ALC1        0.0000 
     22 O          22.3430    4.8380   23.8220 O.2       7 ALL1        0.0000 
     23 O          20.4530    7.0480   24.4060 O.2       4 ALP1        0.0000 
     24 CA         31.8220    5.1040   16.2315 C.3       3 GLC5        0.0000 
     25 CA         30.7090    3.8300   17.3870 C.3       9 GLL5        0.0000 
     26 CA         32.9350    6.3780   15.0760 C.3       6 GLP5        0.0000 
     27 CA         32.9325    4.6335   18.6815 C.3       3 GLC5        0.0000 
     28 CA         30.9110    3.8080   18.7380 C.3       9 GLL5        0.0000 
     29 CA         34.9540    5.4590   18.6250 C.3       6 GLP5        0.0000 
     30 CA         29.0985    2.5300   22.5060 C.3       3 GLC5        0.0000 
     31 CA         30.1850    3.7670   21.1470 C.3       9 GLL5        0.0000 
     32 CA         28.0120    1.2930   23.8650 C.3       6 GLP5        0.0000 
     33 CA         29.0915    4.8860   22.4575 C.3       3 GLC5        0.0000 
     34 CA         27.9980    6.0050   23.7680 C.3       6 GLP5        0.0000 
     35 CA         31.2095    4.1530   22.9180 C.3       3 GLC5        0.0000 
     36 CA         32.2340    4.5390   24.6890 C.3       6 GLP5        0.0000 
     37 CA         31.5105    2.5985   21.1410 C.3       3 GLC5        0.0000 
     38 CA         32.8360    1.4300   21.1350 C.3       6 GLP5        0.0000 
     39 N          26.3635    2.6170   16.3615 N.am      2 SEC2        0.0000 
     40 N          27.0590    3.5700   17.3110 N.am      8 SEL2        0.0000 
     41 N          25.6680    1.6640   15.4120 N.am      5 SEP2        0.0000 
     42 CA         31.4250    2.2965   14.3275 C.3       3 GLC5        0.0000 
     43 CA         29.3950    2.7110   14.6150 C.3       9 GLL5        0.0000 
     44 CA         33.4550    1.8820   14.0400 C.3       6 GLP5        0.0000 
     45 CA         27.2050    6.3090   15.8780 C.3       3 GLC5        0.0000 
     46 CA         28.4920    4.9870   14.9570 C.3       9 GLL5        0.0000 
     47 CA         25.9180    7.6310   16.7990 C.3       6 GLP5        0.0000 
     48 CA         27.0450    7.4340   11.6950 C.3       3 GLC5        0.0000 
     49 CA         27.9740    5.9260   11.4560 C.3       9 GLL5        0.0000 
     50 CA         26.1160    8.9420   11.9340 C.3       6 GLP5        0.0000 
     51 CA         27.4385    6.6525    9.5100 C.3       3 GLC5        0.0000 
     52 CA         26.9030    7.3790    7.5640 C.3       6 GLP5        0.0000 
     53 CA         25.9575    4.6840    9.3375 C.3       3 GLC5        0.0000 
     54 CA         26.7930    3.7270   10.9330 C.3       9 GLL5        0.0000 
     55 CA         25.1220    5.6410    7.7420 C.3       6 GLP5        0.0000 
     56 CA         25.4610    2.5965   10.4165 C.3       3 GLC5        0.0000 
     57 CA         24.1290    1.4660    9.9000 C.3       6 GLP5        0.0000 
     58 CA         24.7165    4.0135   11.0600 C.3       3 GLC5        0.0000 
     59 CA         22.6400    4.3000   11.1870 C.3       6 GLP5        0.0000 
     60 CA         30.0080    5.4925    9.0005 C.3       3 GLC5        0.0000 
     61 CA         29.2440    4.0290   10.2850 C.3       9 GLL5        0.0000 
     62 CA         30.7720    6.9560    7.7160 C.3       6 GLP5        0.0000 
     63 CA         29.6080    4.1315    8.1175 C.3       3 GLC5        0.0000 
     64 CA         29.9720    4.2340    5.9500 C.3       6 GLP5        0.0000 
     65 CA         26.6253    2.1018   22.7063 C.3       3 GLC5        0.0000 
     66 CA         26.5765    5.2321   22.7518 C.3       3 GLC5        0.0000 
     67 CA         23.8633    3.9297   20.6062 C.3       3 GLC5        0.0000 
     68 CA         27.5018    5.0882   22.0547 C.3       3 GLC5        0.0000 
     69 CA         24.2635    5.0194   20.3983 C.3       3 GLC5        0.0000 
     70 CA         27.4885    2.1138   22.0680 C.3       3 GLC5        0.0000 
     71 CA         27.2740    3.5580   20.0920 C.3       9 GLL5        0.0000 
     72 CA         30.0475    1.8862   19.2100 C.3       3 GLC5        0.0000 
     73 CA         28.4600    3.6310   19.1980 C.3       9 GLL5        0.0000 
     74 CA         30.9860    0.1000   18.9780 C.3       6 GLP5        0.0000 
     75 CA         30.8980    1.9595   18.5203 C.3       3 GLC5        0.0000 
     76 CA         30.8325    5.6815   18.5048 C.3       3 GLC5        0.0000 
     77 CA         30.8550    7.5440   18.9470 C.3       6 GLP5        0.0000 
     78 CA         30.4132    5.6422   19.6817 C.3       3 GLC5        0.0000 
     79 CA         29.7580    3.7140   19.6860 C.3       9 GLL5        0.0000 
     80 CA         30.0455    5.6173   14.2312 C.3       3 GLC5        0.0000 
     81 CA         29.0800    3.7920   15.4900 C.3       9 GLL5        0.0000 
     82 CA         31.3050    6.8450   13.2390 C.3       6 GLP5        0.0000 
     83 CA         28.0892    1.7603   14.4488 C.3       3 GLC5        0.0000 
     84 CA         26.9410    0.2690   13.8450 C.3       6 GLP5        0.0000 
     85 CA         27.8833    1.8443   13.4055 C.3       3 GLC5        0.0000 
     86 CA         29.1210    2.8200   13.2160 C.3       9 GLL5        0.0000 
     87 CA         26.3668    4.3665   14.7150 C.3       3 GLC5        0.0000 
     88 CA         28.2350    5.0650   13.5810 C.3       9 GLL5        0.0000 
     89 CA         24.3700    3.7070   15.1610 C.3       6 GLP5        0.0000 
     90 CA         29.7624    5.8471   12.7508 C.3       3 GLC5        0.0000 
     91 CA         28.5300    4.0190   12.7160 C.3       9 GLL5        0.0000 
@<TRIPOS>BOND
@<TRIPOS>SUBSTRUCTURE
     1 ALC1       21 GROUP        1 X    ALC  0     ROOT ALC X 1
     2 SEC2        1 GROUP        1 X    SEC  0     **** SEC X 2
     3 GLC5        4 GROUP        1 X    GLC  0     **** GLC X 6
     4 ALP1       23 GROUP        1 Y    ALP  0     ROOT ALP Y 8
     5 SEP2        3 GROUP        1 Y    SEP  0     **** SEP Y 9
     6 GLP5        6 GROUP        1 Y    GLP  0     **** GLP Y 13
     7 ALL1       22 GROUP        1 Z    ALL  0     ROOT ALL Z 15
     8 SEL2        2 GROUP        1 Z    SEL  0     **** SEL Z 16
     9 GLL5        5 GROUP        1 Z    GLL  0     **** GLL Z 20
@<TRIPOS>SET

