#    Name: 3cp9_C19_2_ligand
#    Modification time : Mon Mar 24 22:08:34 2014

@<TRIPOS>MOLECULE
3cp9_C19_2_ligand
   53    57     1     0     0
SMALL
NO_CHARGES


@<TRIPOS>ATOM
      1 N1         23.9760    6.0030   22.7250 N.ar      1 C19502      0.0000 
      2 C2         25.0810    6.0110   21.9170 C.ar      1 C19502      0.0000 
      3 C3         25.6010    4.7780   21.4270 C.ar      1 C19502      0.0000 
      4 C4         24.9690    3.5240   21.7990 C.ar      1 C19502      0.0000 
      5 N5         23.8450    3.5880   22.6210 N.ar      1 C19502      0.0000 
      6 C6         23.4120    4.8080   23.0420 C.ar      1 C19502      0.0000 
      7 C8         26.7370    4.7850   20.5910 C.ar      1 C19502      0.0000 
      8 C9         27.2740    3.5580   20.0920 C.ar      1 C19502      0.0000 
      9 C10        26.6560    2.3110   20.4500 C.ar      1 C19502      0.0000 
     10 C11        25.5080    2.2970   21.2960 C.ar      1 C19502      0.0000 
     11 N15        22.3430    4.8380   23.8220 N.pl3     1 C19502      0.0000 
     12 C16        28.4600    3.6310   19.1980 C.2       1 C19502      0.0000 
     13 C17        28.2160    3.6410   17.7090 C.2       1 C19502      0.0000 
     14 N18        29.3120    3.7460   16.8500 N.am      1 C19502      0.0000 
     15 C19        30.7090    3.8300   17.3870 C.2       1 C19502      0.0000 
     16 C20        30.9110    3.8080   18.7380 C.2       1 C19502      0.0000 
     17 C21        29.7580    3.7140   19.6860 C.2       1 C19502      0.0000 
     18 C22        30.1850    3.7670   21.1470 C.3       1 C19502      0.0000 
     19 O26        27.0590    3.5700   17.3110 O.2       1 C19502      0.0000 
     20 C27        29.0800    3.7920   15.4900 C.ar      1 C19502      0.0000 
     21 C28        29.3950    2.7110   14.6150 C.ar      1 C19502      0.0000 
     22 C29        29.1210    2.8200   13.2160 C.ar      1 C19502      0.0000 
     23 C30        28.5300    4.0190   12.7160 C.ar      1 C19502      0.0000 
     24 C31        28.2350    5.0650   13.5810 C.ar      1 C19502      0.0000 
     25 C32        28.4920    4.9870   14.9570 C.ar      1 C19502      0.0000 
     26 C36        28.1400    4.3870   11.2970 C.3       1 C19502      0.0000 
     27 C37        27.9740    5.9260   11.4560 C.3       1 C19502      0.0000 
     28 N38        27.6950    6.0850   12.8850 N.pl3     1 C19502      0.0000 
     29 C41        26.7930    3.7270   10.9330 C.3       1 C19502      0.0000 
     30 C45        29.2440    4.0290   10.2850 C.3       1 C19502      0.0000 
     31 H          25.5480    6.8818   21.6525 H         1 C19502      0.0000 
     32 H          27.1841    5.6669   20.3362 H         1 C19502      0.0000 
     33 H          27.0414    1.4399   20.0971 H         1 C19502      0.0000 
     34 H          25.0692    1.4137   21.5441 H         1 C19502      0.0000 
     35 H          22.1851    4.0257   24.3835 H         1 C19502      0.0000 
     36 H          21.7902    5.6702   23.7791 H         1 C19502      0.0000 
     37 H          31.4548    3.9008   16.7069 H         1 C19502      0.0000 
     38 H          31.8410    3.8537   19.1620 H         1 C19502      0.0000 
     39 H          29.8143    1.8624   14.9842 H         1 C19502      0.0000 
     40 H          29.3429    2.0589   12.5916 H         1 C19502      0.0000 
     41 H          28.2710    5.7555   15.5783 H         1 C19502      0.0000 
     42 H          27.1535    6.2341   10.8554 H         1 C19502      0.0000 
     43 H          28.8892    6.3881   11.1771 H         1 C19502      0.0000 
     44 H          27.1938    6.8309   13.2142 H         1 C19502      0.0000 
     45 H          31.1788    3.8254   21.2416 H         1 C19502      0.0000 
     46 H          29.7986    4.5598   21.6183 H         1 C19502      0.0000 
     47 H          29.8900    2.9546   21.6499 H         1 C19502      0.0000 
     48 H          26.5096    3.9510   10.0005 H         1 C19502      0.0000 
     49 H          26.8396    2.7299   10.9936 H         1 C19502      0.0000 
     50 H          26.0575    4.0237   11.5421 H         1 C19502      0.0000 
     51 H          30.1011    4.5029   10.4873 H         1 C19502      0.0000 
     52 H          29.4438    3.0492   10.2845 H         1 C19502      0.0000 
     53 H          28.9859    4.2759    9.3510 H         1 C19502      0.0000 
@<TRIPOS>BOND
     1    2    1 ar   
     2    6    1 ar   
     3    3    2 ar   
     4   31    2 1    
     5    4    3 ar   
     6    7    3 ar   
     7    5    4 ar   
     8   10    4 ar   
     9    6    5 ar   
    10   11    6 1    
    11    8    7 ar   
    12   32    7 1    
    13    9    8 ar   
    14   12    8 1    
    15   10    9 ar   
    16   33    9 1    
    17   34   10 1    
    18   35   11 1    
    19   36   11 1    
    20   13   12 1    
    21   17   12 2    
    22   14   13 am   
    23   19   13 2    
    24   15   14 1    
    25   20   14 1    
    26   16   15 2    
    27   37   15 1    
    28   17   16 1    
    29   38   16 1    
    30   18   17 1    
    31   45   18 1    
    32   46   18 1    
    33   47   18 1    
    34   21   20 ar   
    35   25   20 ar   
    36   22   21 ar   
    37   39   21 1    
    38   23   22 ar   
    39   40   22 1    
    40   24   23 ar   
    41   26   23 1    
    42   25   24 ar   
    43   28   24 1    
    44   41   25 1    
    45   27   26 1    
    46   29   26 1    
    47   30   26 1    
    48   28   27 1    
    49   42   27 1    
    50   43   27 1    
    51   44   28 1    
    52   48   29 1    
    53   49   29 1    
    54   50   29 1    
    55   51   30 1    
    56   52   30 1    
    57   53   30 1    
@<TRIPOS>SUBSTRUCTURE
     1 C19502      1 GROUP   
@<TRIPOS>SET

