#    Name: 1og6_NAP_1_INTS_M
#    Modification time : Mon Mar 24 20:05:55 2014

@<TRIPOS>MOLECULE
1og6_NAP_1_INTS_M
   98     0    12     0     0
SMALL
NO_CHARGES


@<TRIPOS>ATOM
      1 N           3.7660   66.2135   24.7220 N.am      2 SEC2        0.0000 
      2 N           4.8650   66.7170   23.7530 N.am     10 SEL2        0.0000 
      3 N           2.6670   65.7100   25.6910 N.am      6 SEP2        0.0000 
      4 N           4.2545   66.6640   22.5210 N.am      2 SEC2        0.0000 
      5 N           3.6440   66.6110   21.2890 N.am      6 SEP2        0.0000 
      6 CA          4.1895   68.8505   25.0160 C.3       4 GLC5        0.0000 
      7 CA          5.7550   69.5450   24.2410 C.3      12 GLL5        0.0000 
      8 CA          2.6240   68.1560   25.7910 C.3       8 GLP5        0.0000 
      9 CA          9.1720   70.4820   22.0910 C.3       4 GLC5        0.0000 
     10 CA          7.5170   71.2600   23.3220 C.3      12 GLL5        0.0000 
     11 CA         10.8270   69.7040   20.8600 C.3       8 GLP5        0.0000 
     12 CA          8.8985   72.1030   25.4845 C.3       4 GLC5        0.0000 
     13 CA          7.3090   72.5690   24.0720 C.3      12 GLL5        0.0000 
     14 CA         10.4880   71.6370   26.8970 C.3       8 GLP5        0.0000 
     15 CA          4.2655   71.7060   22.9570 C.3       4 GLC5        0.0000 
     16 CA          5.7860   72.9030   23.9010 C.3      12 GLL5        0.0000 
     17 CA          2.7450   70.5090   22.0130 C.3       8 GLP5        0.0000 
     18 CA          5.5820   74.9745   27.7280 C.3       4 GLC5        0.0000 
     19 CA          3.9410   74.3280   26.6590 C.3      12 GLL5        0.0000 
     20 CA          7.2230   75.6210   28.7970 C.3       8 GLP5        0.0000 
     21 CA          0.8415   75.1605   24.5080 C.3       4 GLC5        0.0000 
     22 CA          2.6910   75.9030   24.7440 C.3      12 GLL5        0.0000 
     23 CA         -1.0080   74.4180   24.2720 C.3       8 GLP5        0.0000 
     24 NZ          7.8915   67.0865   20.3130 N.4       3 LYC4        0.0000 
     25 NZ          8.0530   65.8460   21.2090 N.4      11 LYL4        0.0000 
     26 NZ          8.7880   69.1140   19.5860 N.4       7 LYP4        0.0000 
     27 N           8.8415   67.3740   20.9030 N.am      2 SEC2        0.0000 
     28 N           8.0530   65.8460   21.2090 N.am     10 SEL2        0.0000 
     29 N           9.6300   68.9020   20.5970 N.am      6 SEP2        0.0000 
     30 N           7.8915   67.0865   20.3130 N.am      2 SEC2        0.0000 
     31 N           7.7300   68.3270   19.4170 N.am      6 SEP2        0.0000 
     32 N           7.0190   64.6980   21.1335 N.am      2 SEC2        0.0000 
     33 N           5.9850   63.5500   21.0580 N.am      6 SEP2        0.0000 
     34 N           9.6205   67.7555   21.8705 N.am      2 SEC2        0.0000 
     35 N           9.6110   66.6090   23.1440 N.am     10 SEL2        0.0000 
     36 N           7.4675   63.5165   23.2395 N.am      2 SEC2        0.0000 
     37 N           8.6100   64.7160   22.7130 N.am     10 SEL2        0.0000 
     38 N           6.3250   62.3170   23.7660 N.am      6 SEP2        0.0000 
     39 N           7.2975   64.1330   21.8855 N.am      2 SEC2        0.0000 
     40 CA          8.0475   62.1330   24.2610 C.3       4 GLC5        0.0000 
     41 CA          8.8120   64.0190   24.0010 C.3      12 GLL5        0.0000 
     42 CA          7.2830   60.2470   24.5210 C.3       8 GLP5        0.0000 
     43 CA          7.0515   63.6430   23.6910 C.3       4 GLC5        0.0000 
     44 CA          5.2910   63.2670   23.3810 C.3       8 GLP5        0.0000 
     45 CA          9.5965   62.9650   25.8050 C.3       4 GLC5        0.0000 
     46 CA         10.3810   61.9110   27.6090 C.3       8 GLP5        0.0000 
     47 CA          9.1495   61.6190   23.6770 C.3       4 GLC5        0.0000 
     48 CA         10.1700   63.3300   24.0820 C.3      12 GLL5        0.0000 
     49 CA          8.1290   59.9080   23.2720 C.3       8 GLP5        0.0000 
     50 CA         13.8210   62.2655   21.5435 C.3       4 GLC5        0.0000 
     51 CA         12.1840   62.9200   22.7070 C.3      12 GLL5        0.0000 
     52 CA         15.4580   61.6110   20.3800 C.3       8 GLP5        0.0000 
     53 O          13.9085   61.5530   23.6595 O.2       1 ALC1        0.0000 
     54 O          13.4460   62.6970   23.2910 O.2       9 ALL1        0.0000 
     55 O          14.3710   60.4090   24.0280 O.2       5 ALP1        0.0000 
     56 CA          9.7400   60.7965   23.0340 C.3       4 GLC5        0.0000 
     57 CA         11.3510   61.6850   22.7960 C.3      12 GLL5        0.0000 
     58 CA         11.3420   60.7390   24.6770 C.3       4 GLC5        0.0000 
     59 CA         11.3330   59.7930   26.5580 C.3       8 GLP5        0.0000 
     60 N           9.5725   55.9785   18.4895 N.am      2 SEC2        0.0000 
     61 N          10.1460   57.3430   18.5900 N.am     10 SEL2        0.0000 
     62 N           8.9990   54.6140   18.3890 N.am      6 SEP2        0.0000 
     63 O          10.9405   55.3960   20.8350 O.2       1 ALC1        0.0000 
     64 O          10.8800   56.7980   20.5860 O.2       9 ALL1        0.0000 
     65 O          11.0010   53.9940   21.0840 O.2       5 ALP1        0.0000 
     66 O          11.4380   57.2800   22.0505 O.2       1 ALC1        0.0000 
     67 O          11.9960   57.7620   23.5150 O.2       5 ALP1        0.0000 
     68 CA         12.0095   63.5815   20.4165 C.3       4 GLC5        0.0000 
     69 CA         10.4650   62.0090   20.4870 C.3      12 GLL5        0.0000 
     70 CA         13.5540   65.1540   20.3460 C.3       8 GLP5        0.0000 
     71 CA          9.2970   60.9585   21.8795 C.3       4 GLC5        0.0000 
     72 NZ          7.9335   75.6225   26.0910 N.4       3 LYC4        0.0000 
     73 NZ          9.1160   74.7670   26.0240 N.4      11 LYL4        0.0000 
     74 NZ          6.0800   77.0480   27.1460 N.4       7 LYP4        0.0000 
     75 N           9.4300   74.1530   27.1055 N.am      2 SEC2        0.0000 
     76 N           9.1160   74.7670   26.0240 N.am     10 SEL2        0.0000 
     77 N           9.7440   73.5390   28.1870 N.am      6 SEP2        0.0000 
     78 N          10.6590   73.9730   26.0900 N.am      2 SEC2        0.0000 
     79 N          12.2020   73.1790   26.1560 N.am      6 SEP2        0.0000 
     80 N           7.9335   75.6225   26.0910 N.am      2 SEC2        0.0000 
     81 N           6.7510   76.4780   26.1580 N.am      6 SEP2        0.0000 
     82 NZ          9.6795   77.5820   24.3440 N.4       3 LYC4        0.0000 
     83 NZ          8.8580   76.1270   23.7830 N.4      11 LYL4        0.0000 
     84 NZ         10.5010   79.0370   24.9050 N.4       7 LYP4        0.0000 
     85 N          11.0650   73.7420   25.2060 N.am      2 SEC2        0.0000 
     86 N           9.9280   74.3050   24.2560 N.am     10 SEL2        0.0000 
     87 CA          5.2237   68.7897   22.1165 C.3       4 GLC5        0.0000 
     88 CA          6.1260   70.6160   23.1490 C.3      12 GLL5        0.0000 
     89 CA          4.5070   67.4990   20.5380 C.3       8 GLP5        0.0000 
     90 CA          4.3428   70.2947   22.8540 C.3       4 GLC5        0.0000 
     91 CA         11.2263   63.1370   25.4840 C.3       4 GLC5        0.0000 
     92 CA         11.6690   62.5950   27.2310 C.3       8 GLP5        0.0000 
     93 CA         13.1402   64.0115   24.6078 C.3       4 GLC5        0.0000 
     94 CA         11.3970   64.0280   23.3920 C.3      12 GLL5        0.0000 
     95 CA         14.4900   64.5490   26.1660 C.3       8 GLP5        0.0000 
     96 CA         12.6723   64.3140   21.6977 C.3       4 GLC5        0.0000 
     97 CA          9.4187   59.6672   21.9460 C.3       4 GLC5        0.0000 
     98 CA         10.9150   59.6630   21.2510 C.3      12 GLL5        0.0000 
@<TRIPOS>BOND
@<TRIPOS>SUBSTRUCTURE
     1 ALC1       53 GROUP        1 X    ALC  0     ROOT ALC X 1
     2 SEC2        1 GROUP        1 X    SEC  0     **** SEC X 2
     3 LYC4       24 GROUP        1 X    LYC  0     **** LYC X 4
     4 GLC5        6 GROUP        1 X    GLC  0     **** GLC X 6
     5 ALP1       55 GROUP        1 Y    ALP  0     ROOT ALP Y 8
     6 SEP2        3 GROUP        1 Y    SEP  0     **** SEP Y 9
     7 LYP4       26 GROUP        1 Y    LYP  0     **** LYP Y 11
     8 GLP5        8 GROUP        1 Y    GLP  0     **** GLP Y 13
     9 ALL1       54 GROUP        1 Z    ALL  0     ROOT ALL Z 15
    10 SEL2        2 GROUP        1 Z    SEL  0     **** SEL Z 16
    11 LYL4       25 GROUP        1 Z    LYL  0     **** LYL Z 18
    12 GLL5        7 GROUP        1 Z    GLL  0     **** GLL Z 20
@<TRIPOS>SET

