#    Name: 1og6_NAP_1_ligand
#    Modification time : Mon Mar 24 20:05:55 2014

@<TRIPOS>MOLECULE
1og6_NAP_1_ligand
   72    76     1     0     0
SMALL
NO_CHARGES


@<TRIPOS>ATOM
      1 PA          6.0980   66.9650   24.3840 P.3       1 NAP1298     0.0000 
      2 O1A         4.8650   66.7170   23.7530 O.co2     1 NAP1298     0.0000 
      3 O2A         6.3570   66.8680   25.8710 O.co2     1 NAP1298     0.0000 
      4 O5B         6.6210   68.4260   23.9720 O.3       1 NAP1298     0.0000 
      5 C5B         5.7550   69.5450   24.2410 C.3       1 NAP1298     0.0000 
      6 C4B         6.1260   70.6160   23.1490 C.3       1 NAP1298     0.0000 
      7 O4B         5.1830   71.7020   23.4940 O.3       1 NAP1298     0.0000 
      8 C3B         7.5170   71.2600   23.3220 C.3       1 NAP1298     0.0000 
      9 O3B         7.9670   71.4750   21.9860 O.3       1 NAP1298     0.0000 
     10 C2B         7.3090   72.5690   24.0720 C.3       1 NAP1298     0.0000 
     11 O2B         8.1200   73.6660   23.6300 O.3       1 NAP1298     0.0000 
     12 C1B         5.7860   72.9030   23.9010 C.3       1 NAP1298     0.0000 
     13 N9A         5.2040   73.2960   25.1760 N.pl3     1 NAP1298     0.0000 
     14 C8A         5.4410   72.8440   26.4660 C.2       1 NAP1298     0.0000 
     15 N7A         4.7120   73.4290   27.3960 N.2       1 NAP1298     0.0000 
     16 C5A         3.9410   74.3280   26.6590 C.ar      1 NAP1298     0.0000 
     17 C6A         2.9630   75.2420   27.0900 C.ar      1 NAP1298     0.0000 
     18 N6A         2.5490   75.4490   28.3580 N.pl3     1 NAP1298     0.0000 
     19 N1A         2.3430   76.0290   26.1020 N.ar      1 NAP1298     0.0000 
     20 C2A         2.6910   75.9030   24.7440 C.ar      1 NAP1298     0.0000 
     21 N3A         3.6500   75.0120   24.2900 N.ar      1 NAP1298     0.0000 
     22 C4A         4.2490   74.2460   25.2840 C.ar      1 NAP1298     0.0000 
     23 O3          7.2080   66.0260   23.7290 O.3       1 NAP1298     0.0000 
     24 PN          8.2660   66.2960   22.5820 P.3       1 NAP1298     0.0000 
     25 O1N         8.0530   65.8460   21.2090 O.co2     1 NAP1298     0.0000 
     26 O2N         9.6110   66.6090   23.1440 O.co2     1 NAP1298     0.0000 
     27 O5D         8.6100   64.7160   22.7130 O.3       1 NAP1298     0.0000 
     28 C5D         8.8120   64.0190   24.0010 C.3       1 NAP1298     0.0000 
     29 C4D        10.1700   63.3300   24.0820 C.3       1 NAP1298     0.0000 
     30 O4D        10.1710   61.9570   23.6150 O.3       1 NAP1298     0.0000 
     31 C3D        11.3970   64.0280   23.3920 C.3       1 NAP1298     0.0000 
     32 O3D        12.1890   64.7510   24.3420 O.3       1 NAP1298     0.0000 
     33 C2D        12.1840   62.9200   22.7070 C.3       1 NAP1298     0.0000 
     34 O2D        13.4460   62.6970   23.2910 O.3       1 NAP1298     0.0000 
     35 C1D        11.3510   61.6850   22.7960 C.3       1 NAP1298     0.0000 
     36 N1N        10.8950   61.0760   21.4880 N.pl3     1 NAP1298     0.0000 
     37 C2N        10.9150   59.6630   21.2510 C.ar      1 NAP1298     0.0000 
     38 C3N        10.5020   59.1900   19.9890 C.ar      1 NAP1298     0.0000 
     39 C7N        10.5070   57.6750   19.6940 C.2       1 NAP1298     0.0000 
     40 O7N        10.1460   57.3430   18.5900 O.2       1 NAP1298     0.0000 
     41 N7N        10.8800   56.7980   20.5860 N.am      1 NAP1298     0.0000 
     42 C4N        10.0630   60.1160   18.9360 C.ar      1 NAP1298     0.0000 
     43 C5N        10.0540   61.5060   19.2200 C.ar      1 NAP1298     0.0000 
     44 C6N        10.4650   62.0090   20.4870 C.ar      1 NAP1298     0.0000 
     45 P2B         8.5750   74.8930   24.6040 P.3       1 NAP1298     0.0000 
     46 O1X         9.1160   74.7670   26.0240 O.co2     1 NAP1298     0.0000 
     47 O2X         8.8580   76.1270   23.7830 O.co2     1 NAP1298     0.0000 
     48 O3X         9.9280   74.3050   24.2560 O.co2     1 NAP1298     0.0000 
     49 H           5.9409   69.9900   25.1971 H         1 NAP1298     0.0000 
     50 H           4.7193   69.3058   24.1110 H         1 NAP1298     0.0000 
     51 H           5.9573   70.2630   22.2141 H         1 NAP1298     0.0000 
     52 H           8.1162   70.6047   23.8673 H         1 NAP1298     0.0000 
     53 H           7.4383   72.3647   25.1354 H         1 NAP1298     0.0000 
     54 H           5.7047   73.6623   23.1744 H         1 NAP1298     0.0000 
     55 H           6.1221   72.1257   26.6415 H         1 NAP1298     0.0000 
     56 H           2.1970   76.5151   24.0519 H         1 NAP1298     0.0000 
     57 H           8.0282   63.2597   24.1499 H         1 NAP1298     0.0000 
     58 H           8.7347   64.7327   24.8363 H         1 NAP1298     0.0000 
     59 H          10.4619   63.2899   25.1814 H         1 NAP1298     0.0000 
     60 H          10.9874   64.6690   22.6242 H         1 NAP1298     0.0000 
     61 H          12.2645   63.1842   21.6539 H         1 NAP1298     0.0000 
     62 H          11.9420   60.9084   23.3320 H         1 NAP1298     0.0000 
     63 H          11.2182   59.0327   21.9746 H         1 NAP1298     0.0000 
     64 H          11.1272   57.1617   21.4841 H         1 NAP1298     0.0000 
     65 H          10.8843   55.8431   20.2892 H         1 NAP1298     0.0000 
     66 H           9.7819   59.7525   18.0487 H         1 NAP1298     0.0000 
     67 H           9.7438   62.1673   18.4955 H         1 NAP1298     0.0000 
     68 H          10.4558   62.9951   20.6804 H         1 NAP1298     0.0000 
     69 H           8.5159   72.3098   22.0291 H         1 NAP1298     0.0000 
     70 H           2.9104   74.6749   28.8778 H         1 NAP1298     0.0000 
     71 H          13.1147   64.3874   24.2371 H         1 NAP1298     0.0000 
     72 H          13.4786   61.7135   23.4688 H         1 NAP1298     0.0000 
@<TRIPOS>BOND
     1    2    1 ar   
     2    3    1 ar   
     3    4    1 1    
     4   23    1 1    
     5    5    4 1    
     6    6    5 1    
     7   49    5 1    
     8   50    5 1    
     9    7    6 1    
    10    8    6 1    
    11   51    6 1    
    12   12    7 1    
    13    9    8 1    
    14   10    8 1    
    15   52    8 1    
    16   69    9 1    
    17   11   10 1    
    18   12   10 1    
    19   53   10 1    
    20   45   11 1    
    21   13   12 1    
    22   54   12 1    
    23   14   13 1    
    24   22   13 1    
    25   15   14 2    
    26   55   14 1    
    27   16   15 1    
    28   17   16 ar   
    29   22   16 ar   
    30   18   17 1    
    31   19   17 ar   
    32   70   18 1    
    33   20   19 ar   
    34   21   20 ar   
    35   56   20 1    
    36   22   21 ar   
    37   24   23 1    
    38   25   24 ar   
    39   26   24 ar   
    40   27   24 1    
    41   28   27 1    
    42   29   28 1    
    43   57   28 1    
    44   58   28 1    
    45   30   29 1    
    46   31   29 1    
    47   59   29 1    
    48   35   30 1    
    49   32   31 1    
    50   33   31 1    
    51   60   31 1    
    52   71   32 1    
    53   34   33 1    
    54   35   33 1    
    55   61   33 1    
    56   72   34 1    
    57   36   35 1    
    58   62   35 1    
    59   37   36 ar   
    60   44   36 ar   
    61   38   37 ar   
    62   63   37 1    
    63   39   38 1    
    64   42   38 ar   
    65   40   39 2    
    66   41   39 am   
    67   64   41 1    
    68   65   41 1    
    69   43   42 ar   
    70   66   42 1    
    71   44   43 ar   
    72   67   43 1    
    73   68   44 1    
    74   46   45 ar   
    75   47   45 ar   
    76   48   45 ar   
@<TRIPOS>SUBSTRUCTURE
     1 NAP1298     1 GROUP   
@<TRIPOS>SET

