#    Name: 2hck_QUE_1_INTS_M
#    Modification time : Tue Mar 25 15:52:30 2014

@<TRIPOS>MOLECULE
2hck_QUE_1_INTS_M
   44     0     9     0     0
SMALL
NO_CHARGES


@<TRIPOS>ATOM
      1 CA         36.1065   43.6570   99.7980 C.3       3 GLC5        0.0000 
      2 CA         35.2640   45.2260   98.6320 C.3       9 GLL5        0.0000 
      3 CA         36.9490   42.0880  100.9640 C.3       6 GLP5        0.0000 
      4 CA         33.3530   44.6810   96.6645 C.3       3 GLC5        0.0000 
      5 CA         33.8660   45.0060   98.6530 C.3       9 GLL5        0.0000 
      6 CA         32.8400   44.3560   94.6760 C.3       6 GLP5        0.0000 
      7 CA         31.8140   42.0720   99.0155 C.3       3 GLC5        0.0000 
      8 CA         31.7990   43.7120   98.1870 C.3       9 GLL5        0.0000 
      9 CA         31.8290   40.4320   99.8440 C.3       6 GLP5        0.0000 
     10 CA         31.6620   46.4875   97.4950 C.3       3 GLC5        0.0000 
     11 CA         31.0700   44.8000   98.7780 C.3       9 GLL5        0.0000 
     12 CA         32.2540   48.1750   96.2120 C.3       6 GLP5        0.0000 
     13 CA         29.6470   44.4155   96.1095 C.3       3 GLC5        0.0000 
     14 CA         28.7740   43.9420   98.1070 C.3       9 GLL5        0.0000 
     15 CA         30.5200   44.8890   94.1120 C.3       6 GLP5        0.0000 
     16 O          36.8380   48.9750   99.7475 O.2       1 ALC1        0.0000 
     17 O          35.5580   48.6420  100.2650 O.2       7 ALL1        0.0000 
     18 O          38.1180   49.3080   99.2300 O.2       4 ALP1        0.0000 
     19 N          37.0515   43.3250   98.4650 N.am      2 SEC2        0.0000 
     20 N          36.0950   44.2490   98.1150 N.am      8 SEL2        0.0000 
     21 N          38.0080   42.4010   98.8150 N.am      5 SEP2        0.0000 
     22 CA         35.3423   45.6065  100.8197 C.3       3 GLC5        0.0000 
     23 CA         35.8190   46.4240   99.1730 C.3       9 GLL5        0.0000 
     24 CA         35.1430   45.3880  102.7370 C.3       6 GLP5        0.0000 
     25 CA         33.0662   45.0695  100.7048 C.3       3 GLC5        0.0000 
     26 CA         33.1010   46.0600   99.2240 C.3       9 GLL5        0.0000 
     27 CA         32.6490   44.6060  102.4710 C.3       6 GLP5        0.0000 
     28 CA         32.9156   47.2792   97.7791 C.3       3 GLC5        0.0000 
     29 CA         34.7502   46.3683  101.2405 C.3       3 GLC5        0.0000 
     30 CA         33.6710   47.2340   99.7540 C.3       9 GLL5        0.0000 
     31 CA         36.1294   46.8675   97.6246 C.3       3 GLC5        0.0000 
     32 CA         35.0440   47.4630   99.7340 C.3       9 GLL5        0.0000 
     33 CA         36.9660   47.0910   95.9310 C.3       6 GLP5        0.0000 
     34 CA         32.1373   44.3060   96.5793 C.3       3 GLC5        0.0000 
     35 CA         32.0418   44.4310  100.4768 C.3       3 GLC5        0.0000 
     36 CA         28.9030   44.1008  100.7922 C.3       3 GLC5        0.0000 
     37 CA         29.6420   44.8340   98.7700 C.3       9 GLL5        0.0000 
     38 CA         28.4830   42.8110  102.5160 C.3       6 GLP5        0.0000 
     39 CA         26.7837   45.8115   96.5505 C.3       3 GLC5        0.0000 
     40 CA         27.3770   44.1620   98.0520 C.3       9 GLL5        0.0000 
     41 CA         26.4800   46.8940   94.7470 C.3       6 GLP5        0.0000 
     42 CA         29.2362   47.6245   98.2363 C.3       3 GLC5        0.0000 
     43 CA         27.6390   46.2230   99.3340 C.3       9 GLL5        0.0000 
     44 CA         30.1510   49.1640   97.1220 C.3       6 GLP5        0.0000 
@<TRIPOS>BOND
@<TRIPOS>SUBSTRUCTURE
     1 ALC1       16 GROUP        1 X    ALC  0     ROOT ALC X 1
     2 SEC2       19 GROUP        1 X    SEC  0     **** SEC X 2
     3 GLC5        1 GROUP        1 X    GLC  0     **** GLC X 6
     4 ALP1       18 GROUP        1 Y    ALP  0     ROOT ALP Y 8
     5 SEP2       21 GROUP        1 Y    SEP  0     **** SEP Y 9
     6 GLP5        3 GROUP        1 Y    GLP  0     **** GLP Y 13
     7 ALL1       17 GROUP        1 Z    ALL  0     ROOT ALL Z 15
     8 SEL2       20 GROUP        1 Z    SEL  0     **** SEL Z 16
     9 GLL5        2 GROUP        1 Z    GLL  0     **** GLL Z 20
@<TRIPOS>SET

