#    Name: 2hck_QUE_1_ligand
#    Modification time : Tue Mar 25 15:52:30 2014

@<TRIPOS>MOLECULE
2hck_QUE_1_ligand
   32    34     1     0     0
SMALL
NO_CHARGES


@<TRIPOS>ATOM
      1 C1         35.8190   46.4240   99.1730 C.ar      1 QUE1        0.0000 
      2 C2         35.2640   45.2260   98.6320 C.ar      1 QUE1        0.0000 
      3 C3         33.8660   45.0060   98.6530 C.ar      1 QUE1        0.0000 
      4 C4         33.1010   46.0600   99.2240 C.ar      1 QUE1        0.0000 
      5 C5         33.6710   47.2340   99.7540 C.ar      1 QUE1        0.0000 
      6 C6         35.0440   47.4630   99.7340 C.ar      1 QUE1        0.0000 
      7 C9         33.2320   43.8350   98.1130 C.2       1 QUE1        0.0000 
      8 C10        31.7990   43.7120   98.1870 C.2       1 QUE1        0.0000 
      9 C11        31.0700   44.8000   98.7780 C.2       1 QUE1        0.0000 
     10 C14        29.6420   44.8340   98.7700 C.ar      1 QUE1        0.0000 
     11 C15        28.7740   43.9420   98.1070 C.ar      1 QUE1        0.0000 
     12 C16        27.3770   44.1620   98.0520 C.ar      1 QUE1        0.0000 
     13 C17        26.7980   45.2960   98.6560 C.ar      1 QUE1        0.0000 
     14 C18        27.6390   46.2230   99.3340 C.ar      1 QUE1        0.0000 
     15 C19        29.0040   45.9470   99.3670 C.ar      1 QUE1        0.0000 
     16 O12        31.7430   45.9150   99.2730 O.3       1 QUE1        0.0000 
     17 O13        33.8790   42.9520   97.5390 O.2       1 QUE1        0.0000 
     18 O23        27.2170   47.4230   99.9240 O.3       1 QUE1        0.0000 
     19 O24        25.4070   45.4370   98.5480 O.3       1 QUE1        0.0000 
     20 O27        31.2040   42.5450   97.7210 O.3       1 QUE1        0.0000 
     21 O29        35.5580   48.6420  100.2650 O.3       1 QUE1        0.0000 
     22 O30        36.0950   44.2490   98.1150 O.3       1 QUE1        0.0000 
     23 H          36.8583   46.5333   99.1501 H         1 QUE1        0.0000 
     24 H          33.0407   47.9476  100.1717 H         1 QUE1        0.0000 
     25 H          29.1670   43.1032   97.6475 H         1 QUE1        0.0000 
     26 H          26.7786   43.4837   97.5641 H         1 QUE1        0.0000 
     27 H          29.6334   46.6328   99.8883 H         1 QUE1        0.0000 
     28 H          28.0268   47.7817  100.3883 H         1 QUE1        0.0000 
     29 H          25.2683   46.3531   98.1718 H         1 QUE1        0.0000 
     30 H          31.9345   42.0538   97.2466 H         1 QUE1        0.0000 
     31 H          36.4284   48.7806   99.7926 H         1 QUE1        0.0000 
     32 H          35.5770   43.8398   97.3638 H         1 QUE1        0.0000 
@<TRIPOS>BOND
     1    2    1 ar   
     2    6    1 ar   
     3   23    1 1    
     4    3    2 ar   
     5   22    2 1    
     6    4    3 ar   
     7    7    3 1    
     8    5    4 ar   
     9   16    4 1    
    10    6    5 ar   
    11   24    5 1    
    12   21    6 1    
    13    8    7 1    
    14   17    7 2    
    15    9    8 2    
    16   20    8 1    
    17   10    9 1    
    18   16    9 1    
    19   11   10 ar   
    20   15   10 ar   
    21   12   11 ar   
    22   25   11 1    
    23   13   12 ar   
    24   26   12 1    
    25   14   13 ar   
    26   19   13 1    
    27   15   14 ar   
    28   18   14 1    
    29   27   15 1    
    30   28   18 1    
    31   29   19 1    
    32   30   20 1    
    33   31   21 1    
    34   32   22 1    
@<TRIPOS>SUBSTRUCTURE
     1 QUE1        1 GROUP   
@<TRIPOS>SET

