#    Name: 1zx9_FAD_1_INTS_M
#    Modification time : Mon Mar 24 17:54:20 2014

@<TRIPOS>MOLECULE
1zx9_FAD_1_INTS_M
  137     0     9     0     0
SMALL
NO_CHARGES


@<TRIPOS>ATOM
      1 N         112.6920   41.2180  -50.4300 N.am      2 SEC2        0.0000 
      2 N         113.5820   42.0490  -50.0720 N.am      8 SEL2        0.0000 
      3 N         111.8020   40.3870  -50.7880 N.am      5 SEP2        0.0000 
      4 N         112.6320   42.9505  -50.3675 N.am      2 SEC2        0.0000 
      5 N         111.6820   43.8520  -50.6630 N.am      5 SEP2        0.0000 
      6 N         114.6365   39.6915  -51.3035 N.am      2 SEC2        0.0000 
      7 N         115.4920   40.9210  -51.2920 N.am      8 SEL2        0.0000 
      8 N         113.7810   38.4620  -51.3150 N.am      5 SEP2        0.0000 
      9 CA        114.9035   43.5355  -47.9220 C.3       3 GLC5        0.0000 
     10 CA        115.8180   41.8870  -47.6440 C.3       9 GLL5        0.0000 
     11 CA        113.9890   45.1840  -48.2000 C.3       6 GLP5        0.0000 
     12 CA        117.9480   40.8555  -45.9450 C.3       3 GLC5        0.0000 
     13 CA        116.2330   40.7360  -46.7560 C.3       9 GLL5        0.0000 
     14 CA        119.6630   40.9750  -45.1340 C.3       6 GLP5        0.0000 
     15 CA        115.3130   38.5380  -48.2540 C.3       3 GLC5        0.0000 
     16 CA        115.1500   39.6130  -46.5750 C.3       9 GLL5        0.0000 
     17 CA        115.4760   37.4630  -49.9330 C.3       6 GLP5        0.0000 
     18 O         116.8185   37.9450  -46.1105 O.2       1 ALC1        0.0000 
     19 O         115.7500   38.3250  -46.7700 O.2       7 ALL1        0.0000 
     20 O         117.8870   37.5650  -45.4510 O.2       4 ALP1        0.0000 
     21 N         113.3220   39.3050  -43.0470 N.am      2 SEC2        0.0000 
     22 N         114.0100   38.8180  -44.5260 N.am      8 SEL2        0.0000 
     23 N         112.6340   39.7920  -41.5680 N.am      5 SEP2        0.0000 
     24 O         115.1430   37.8290  -44.3360 O.2       1 ALC1        0.0000 
     25 O         114.0100   38.8180  -44.5260 O.2       7 ALL1        0.0000 
     26 O         116.2760   36.8400  -44.1460 O.2       4 ALP1        0.0000 
     27 CA        117.7600   40.6545  -44.7920 C.3       3 GLC5        0.0000 
     28 CA        115.8570   40.3340  -44.4500 C.3       9 GLL5        0.0000 
     29 CA        115.1005   39.2220  -42.7105 C.3       3 GLC5        0.0000 
     30 CA        114.3440   38.1100  -40.9710 C.3       6 GLP5        0.0000 
     31 CA        115.5750   41.2955  -38.1810 C.3       3 GLC5        0.0000 
     32 CA        116.3440   41.9930  -39.8970 C.3       9 GLL5        0.0000 
     33 CA        114.8060   40.5980  -36.4650 C.3       6 GLP5        0.0000 
     34 CA        116.5720   44.1485  -39.4305 C.3       3 GLC5        0.0000 
     35 CA        116.8000   46.3040  -38.9640 C.3       6 GLP5        0.0000 
     36 O         116.7100   43.3215  -37.7690 O.2       1 ALC1        0.0000 
     37 O         115.9570   42.8810  -38.9740 O.2       7 ALL1        0.0000 
     38 O         117.4630   43.7620  -36.5640 O.2       4 ALP1        0.0000 
     39 O         114.5000   43.4865  -38.3835 O.2       1 ALC1        0.0000 
     40 O         113.0430   44.0920  -37.7930 O.2       4 ALP1        0.0000 
     41 N         117.8025   41.0595  -38.1315 N.am      2 SEC2        0.0000 
     42 N         117.3230   41.0550  -39.5700 N.am      8 SEL2        0.0000 
     43 N         118.2820   41.0640  -36.6930 N.am      5 SEP2        0.0000 
     44 CA        118.6285   41.7935  -40.8550 C.3       3 GLC5        0.0000 
     45 CA        117.7430   40.1370  -40.4810 C.3       9 GLL5        0.0000 
     46 CA        119.5140   43.4500  -41.2290 C.3       6 GLP5        0.0000 
     47 CA        119.4950   39.5045  -39.5455 C.3       3 GLC5        0.0000 
     48 CA        121.2470   38.8720  -38.6100 C.3       6 GLP5        0.0000 
     49 CA        118.5555   38.5710  -41.3515 C.3       3 GLC5        0.0000 
     50 CA        119.3680   37.0050  -42.2220 C.3       6 GLP5        0.0000 
     51 CA        116.4655   38.8400  -40.1590 C.3       3 GLC5        0.0000 
     52 CA        115.1880   37.5430  -39.8370 C.3       6 GLP5        0.0000 
     53 CA        117.3020   39.6240  -38.5390 C.3       3 GLC5        0.0000 
     54 CA        116.8610   39.1110  -36.5970 C.3       6 GLP5        0.0000 
     55 N         117.2160   38.4950  -41.4760 N.am      2 SEC2        0.0000 
     56 N         117.2530   40.0380  -41.8030 N.am      8 SEL2        0.0000 
     57 N         117.1790   36.9520  -41.1490 N.am      5 SEP2        0.0000 
     58 CA        115.2990   39.5805  -41.4990 C.3       3 GLC5        0.0000 
     59 CA        116.2540   41.0510  -42.0270 C.3       9 GLL5        0.0000 
     60 N         114.0745   43.9240  -58.9985 N.am      2 SEC2        0.0000 
     61 N         112.5320   43.3930  -59.4890 N.am      8 SEL2        0.0000 
     62 N         115.6170   44.4550  -58.5080 N.am      5 SEP2        0.0000 
     63 N         114.8800   44.2080  -59.7630 N.am      2 SEC2        0.0000 
     64 N         114.1430   43.9610  -61.0180 N.am      8 SEL2        0.0000 
     65 N         109.5210   40.4400  -62.5210 N.am      2 SEC2        0.0000 
     66 N         110.7920   41.1650  -62.5300 N.am      8 SEL2        0.0000 
     67 N         108.2500   39.7150  -62.5120 N.am      5 SEP2        0.0000 
     68 CA        107.1370   38.7070  -59.4105 C.3       3 GLC5        0.0000 
     69 CA        107.8020   40.4450  -58.4180 C.3       9 GLL5        0.0000 
     70 CA        106.4720   36.9690  -60.4030 C.3       6 GLP5        0.0000 
     71 CA        106.2070   38.2930  -58.6210 C.3       3 GLC5        0.0000 
     72 CA        105.9420   39.6170  -56.8390 C.3       9 GLL5        0.0000 
     73 CA        104.4550   39.4675  -55.6345 C.3       3 GLC5        0.0000 
     74 CA        102.9680   39.3180  -54.4300 C.3       6 GLP5        0.0000 
     75 CA        105.6595   37.6165  -56.5915 C.3       3 GLC5        0.0000 
     76 CA        105.3770   35.6160  -56.3440 C.3       6 GLP5        0.0000 
     77 CA        104.3790   40.8675  -56.8620 C.3       3 GLC5        0.0000 
     78 CA        102.8160   42.1180  -56.8850 C.3       6 GLP5        0.0000 
     79 CA        106.8165   42.9720  -53.5695 C.3       3 GLC5        0.0000 
     80 CA        107.3520   41.2620  -54.6430 C.3       9 GLL5        0.0000 
     81 CA        106.2810   44.6820  -52.4960 C.3       6 GLP5        0.0000 
     82 CA        111.4105   40.9560  -58.3385 C.3       3 GLC5        0.0000 
     83 CA        109.5920   41.9550  -57.6480 C.3       9 GLL5        0.0000 
     84 CA        113.2290   39.9570  -59.0290 C.3       6 GLP5        0.0000 
     85 CA        113.6770   40.9485  -56.4135 C.3       3 GLC5        0.0000 
     86 CA        112.6320   42.8930  -56.3540 C.3       9 GLL5        0.0000 
     87 CA        114.7220   39.0040  -56.4730 C.3       6 GLP5        0.0000 
     88 CA        114.6180   42.5535  -57.2630 C.3       3 GLC5        0.0000 
     89 CA        116.6040   42.2140  -58.1720 C.3       6 GLP5        0.0000 
     90 O         112.7335   45.2650  -54.1200 O.2       1 ALC1        0.0000 
     91 O         113.3630   45.0300  -55.5050 O.2       7 ALL1        0.0000 
     92 O         112.1040   45.5000  -52.7350 O.2       4 ALP1        0.0000 
     93 O         113.3650   46.0590  -54.5325 O.2       1 ALC1        0.0000 
     94 O         113.3670   47.0880  -53.5600 O.2       4 ALP1        0.0000 
     95 CA        115.6265   43.4725  -56.2900 C.3       3 GLC5        0.0000 
     96 CA        114.5000   43.2050  -54.6310 C.3       9 GLL5        0.0000 
     97 CA        116.7530   43.7400  -57.9490 C.3       6 GLP5        0.0000 
     98 N         113.9225   40.2085  -54.3660 N.am      2 SEC2        0.0000 
     99 N         114.3630   41.7830  -54.3160 N.am      8 SEL2        0.0000 
    100 N         113.4820   38.6340  -54.4160 N.am      5 SEP2        0.0000 
    101 CA        113.9635   45.4560  -52.2800 C.3       3 GLC5        0.0000 
    102 CA        114.8810   43.9100  -53.3880 C.3       9 GLL5        0.0000 
    103 CA        113.0460   47.0020  -51.1720 C.3       6 GLP5        0.0000 
    104 CA        116.6365   44.9265  -54.0610 C.3       3 GLC5        0.0000 
    105 CA        118.3920   45.9430  -54.7340 C.3       6 GLP5        0.0000 
    106 N         119.3205   43.3390  -52.0715 N.am      2 SEC2        0.0000 
    107 N         118.0020   43.2430  -51.3860 N.am      8 SEL2        0.0000 
    108 N         120.6390   43.4350  -52.7570 N.am      5 SEP2        0.0000 
    109 N         115.9910   46.6740  -51.4325 N.am      2 SEC2        0.0000 
    110 N         116.6920   45.3900  -51.4190 N.am      8 SEL2        0.0000 
    111 N         115.2900   47.9580  -51.4460 N.am      5 SEP2        0.0000 
    112 CA        116.1328   43.0632  -46.1800 C.3       3 GLC5        0.0000 
    113 CA        116.2400   44.8150  -45.1600 C.3       6 GLP5        0.0000 
    114 CA        114.7600   40.6098  -40.5195 C.3       3 GLC5        0.0000 
    115 CA        113.4500   39.2410  -40.4880 C.3       6 GLP5        0.0000 
    116 CA        117.8380   42.4824  -41.2590 C.3       3 GLC5        0.0000 
    117 CA        115.7960   41.9640  -41.2050 C.3       9 GLL5        0.0000 
    118 CA        116.5040   43.3754  -42.0310 C.3       3 GLC5        0.0000 
    119 CA        116.8460   45.2360  -42.7730 C.3       6 GLP5        0.0000 
    120 CA        108.9360   39.3100  -57.3948 C.3       3 GLC5        0.0000 
    121 CA        108.9800   41.1730  -58.7410 C.3       9 GLL5        0.0000 
    122 CA        109.4810   37.8110  -56.2100 C.3       6 GLP5        0.0000 
    123 CA        109.7125   39.4555  -59.1163 C.3       3 GLC5        0.0000 
    124 CA        111.0340   38.1020  -59.6530 C.3       6 GLP5        0.0000 
    125 CA        106.1835   41.9810  -57.5257 C.3       3 GLC5        0.0000 
    126 CA        104.8570   43.5210  -57.2880 C.3       6 GLP5        0.0000 
    127 CA        108.0305   38.9190  -56.5920 C.3       3 GLC5        0.0000 
    128 CA        107.2180   40.4370  -57.1090 C.3       9 GLL5        0.0000 
    129 CA        108.5445   39.5213  -55.7855 C.3       3 GLC5        0.0000 
    130 CA        106.2325   42.3762  -56.3245 C.3       3 GLC5        0.0000 
    131 CA        107.8640   41.2010  -56.0790 C.3       9 GLL5        0.0000 
    132 CA        109.5065   40.8014  -54.3842 C.3       3 GLC5        0.0000 
    133 CA        110.7040   40.0210  -52.9120 C.3       6 GLP5        0.0000 
    134 CA        109.3910   39.8772  -56.6050 C.3       3 GLC5        0.0000 
    135 CA        109.0100   41.9320  -56.3520 C.3       9 GLL5        0.0000 
    136 CA        112.6242   41.5682  -57.8420 C.3       3 GLC5        0.0000 
    137 CA        111.4070   43.4660  -56.9560 C.3       9 GLL5        0.0000 
@<TRIPOS>BOND
@<TRIPOS>SUBSTRUCTURE
     1 ALC1       18 GROUP        1 X    ALC  0     ROOT ALC X 1
     2 SEC2        1 GROUP        1 X    SEC  0     **** SEC X 2
     3 GLC5        9 GROUP        1 X    GLC  0     **** GLC X 6
     4 ALP1       20 GROUP        1 Y    ALP  0     ROOT ALP Y 8
     5 SEP2        3 GROUP        1 Y    SEP  0     **** SEP Y 9
     6 GLP5       11 GROUP        1 Y    GLP  0     **** GLP Y 13
     7 ALL1       19 GROUP        1 Z    ALL  0     ROOT ALL Z 15
     8 SEL2        2 GROUP        1 Z    SEL  0     **** SEL Z 16
     9 GLL5       10 GROUP        1 Z    GLL  0     **** GLL Z 20
@<TRIPOS>SET

