#    Name: 1zx9_FAD_1_ligand
#    Modification time : Mon Mar 24 17:54:20 2014

@<TRIPOS>MOLECULE
1zx9_FAD_1_ligand
   84    89     1     0     0
SMALL
NO_CHARGES


@<TRIPOS>ATOM
      1 PA        115.0450   41.8370  -50.2090 P.3       1 FAD666      0.0000 
      2 O1A       113.5820   42.0490  -50.0720 O.co2     1 FAD666      0.0000 
      3 O2A       115.4920   40.9210  -51.2920 O.co2     1 FAD666      0.0000 
      4 O5B       115.5850   41.2240  -48.8810 O.3       1 FAD666      0.0000 
      5 C5B       115.8180   41.8870  -47.6440 C.3       1 FAD666      0.0000 
      6 C4B       116.2330   40.7360  -46.7560 C.3       1 FAD666      0.0000 
      7 O4B       116.5660   41.1460  -45.4060 O.3       1 FAD666      0.0000 
      8 C3B       115.1500   39.6130  -46.5750 C.3       1 FAD666      0.0000 
      9 O3B       115.7500   38.3250  -46.7700 O.3       1 FAD666      0.0000 
     10 C2B       114.6340   39.8540  -45.2180 C.3       1 FAD666      0.0000 
     11 O2B       114.0100   38.8180  -44.5260 O.3       1 FAD666      0.0000 
     12 C1B       115.8570   40.3340  -44.4500 C.3       1 FAD666      0.0000 
     13 N9A       115.6340   41.1380  -43.2830 N.pl3     1 FAD666      0.0000 
     14 C8A       114.7560   42.2300  -43.0580 C.2       1 FAD666      0.0000 
     15 N7A       114.8280   42.7300  -41.8620 N.2       1 FAD666      0.0000 
     16 C5A       115.7960   41.9640  -41.2050 C.ar      1 FAD666      0.0000 
     17 C6A       116.3440   41.9930  -39.8970 C.ar      1 FAD666      0.0000 
     18 N6A       115.9570   42.8810  -38.9740 N.pl3     1 FAD666      0.0000 
     19 N1A       117.3230   41.0550  -39.5700 N.ar      1 FAD666      0.0000 
     20 C2A       117.7430   40.1370  -40.4810 C.ar      1 FAD666      0.0000 
     21 N3A       117.2530   40.0380  -41.8030 N.ar      1 FAD666      0.0000 
     22 C4A       116.2540   41.0510  -42.0270 C.ar      1 FAD666      0.0000 
     23 N1        112.5320   43.3930  -59.4890 N.2       1 FAD666      0.0000 
     24 C2        113.0960   43.3450  -60.7490 C.2       1 FAD666      0.0000 
     25 O2        114.1430   43.9610  -61.0180 O.2       1 FAD666      0.0000 
     26 N3        112.4660   42.5830  -61.7280 N.am      1 FAD666      0.0000 
     27 C4        111.2740   41.8300  -61.5520 C.2       1 FAD666      0.0000 
     28 O4        110.7920   41.1650  -62.5300 O.2       1 FAD666      0.0000 
     29 C4X       110.7380   41.8910  -60.2850 C.2       1 FAD666      0.0000 
     30 N5        109.5270   41.1280  -60.0550 N.2       1 FAD666      0.0000 
     31 C5X       108.9800   41.1730  -58.7410 C.ar      1 FAD666      0.0000 
     32 C6        107.8020   40.4450  -58.4180 C.ar      1 FAD666      0.0000 
     33 C7        107.2180   40.4370  -57.1090 C.ar      1 FAD666      0.0000 
     34 C7M       105.9420   39.6170  -56.8390 C.3       1 FAD666      0.0000 
     35 C8        107.8640   41.2010  -56.0790 C.ar      1 FAD666      0.0000 
     36 C8M       107.3520   41.2620  -54.6430 C.3       1 FAD666      0.0000 
     37 C9        109.0100   41.9320  -56.3520 C.ar      1 FAD666      0.0000 
     38 C9A       109.5920   41.9550  -57.6480 C.ar      1 FAD666      0.0000 
     39 N10       110.8270   42.7080  -58.0130 N.pl3     1 FAD666      0.0000 
     40 C10       111.3740   42.6720  -59.2750 C.2       1 FAD666      0.0000 
     41 C1'       111.4070   43.4660  -56.9560 C.3       1 FAD666      0.0000 
     42 C2'       112.6320   42.8930  -56.3540 C.3       1 FAD666      0.0000 
     43 O2'       112.2310   41.5830  -55.8650 O.3       1 FAD666      0.0000 
     44 C3'       113.1560   43.6570  -55.1910 C.3       1 FAD666      0.0000 
     45 O3'       113.3630   45.0300  -55.5050 O.3       1 FAD666      0.0000 
     46 C4'       114.5000   43.2050  -54.6310 C.3       1 FAD666      0.0000 
     47 O4'       114.3630   41.7830  -54.3160 O.3       1 FAD666      0.0000 
     48 C5'       114.8810   43.9100  -53.3880 C.3       1 FAD666      0.0000 
     49 O5'       116.1350   43.4350  -52.9030 O.3       1 FAD666      0.0000 
     50 P         116.7140   43.9010  -51.5270 P.3       1 FAD666      0.0000 
     51 O1P       118.0020   43.2430  -51.3860 O.co2     1 FAD666      0.0000 
     52 O2P       116.6920   45.3900  -51.4190 O.co2     1 FAD666      0.0000 
     53 O3P       115.6010   43.3070  -50.5230 O.3       1 FAD666      0.0000 
     54 H         114.9316   42.3254  -47.2442 H         1 FAD666      0.0000 
     55 H         116.6241   42.5831  -47.7012 H         1 FAD666      0.0000 
     56 H         117.1073   40.2321  -47.1930 H         1 FAD666      0.0000 
     57 H         114.3860   39.8331  -47.2977 H         1 FAD666      0.0000 
     58 H         113.9837   40.7606  -45.2696 H         1 FAD666      0.0000 
     59 H         116.4723   39.4675  -44.2299 H         1 FAD666      0.0000 
     60 H         114.1575   42.5411  -43.7971 H         1 FAD666      0.0000 
     61 H         116.4157   42.8223  -38.0873 H         1 FAD666      0.0000 
     62 H         115.2438   43.5238  -39.2536 H         1 FAD666      0.0000 
     63 H         118.4902   39.4366  -40.2005 H         1 FAD666      0.0000 
     64 H         112.9061   42.5543  -62.6961 H         1 FAD666      0.0000 
     65 H         107.3382   39.8901  -59.1643 H         1 FAD666      0.0000 
     66 H         109.4656   42.4815  -55.6002 H         1 FAD666      0.0000 
     67 H         110.6552   43.6274  -56.1327 H         1 FAD666      0.0000 
     68 H         111.6454   44.5091  -57.3083 H         1 FAD666      0.0000 
     69 H         113.3877   42.7734  -57.0978 H         1 FAD666      0.0000 
     70 H         112.4375   43.6001  -54.3565 H         1 FAD666      0.0000 
     71 H         115.2494   43.3318  -55.3841 H         1 FAD666      0.0000 
     72 H         114.0848   43.7612  -52.6359 H         1 FAD666      0.0000 
     73 H         114.9224   44.9954  -53.5926 H         1 FAD666      0.0000 
     74 H         106.0804   38.6436  -57.0217 H         1 FAD666      0.0000 
     75 H         105.6433   39.6971  -55.8880 H         1 FAD666      0.0000 
     76 H         105.1794   39.9172  -57.4120 H         1 FAD666      0.0000 
     77 H         107.3321   40.3575  -54.2171 H         1 FAD666      0.0000 
     78 H         107.9270   41.8441  -54.0681 H         1 FAD666      0.0000 
     79 H         106.4230   41.6290  -54.5952 H         1 FAD666      0.0000 
     80 H         116.5125   38.2943  -46.1237 H         1 FAD666      0.0000 
     81 H         114.7264   38.1355  -44.3809 H         1 FAD666      0.0000 
     82 H         112.9104   41.3471  -55.1702 H         1 FAD666      0.0000 
     83 H         113.3212   45.5055  -54.6263 H         1 FAD666      0.0000 
     84 H         114.7083   41.6905  -53.3821 H         1 FAD666      0.0000 
@<TRIPOS>BOND
     1    2    1 ar   
     2    3    1 ar   
     3    4    1 1    
     4   53    1 1    
     5    5    4 1    
     6    6    5 1    
     7   54    5 1    
     8   55    5 1    
     9    7    6 1    
    10    8    6 1    
    11   56    6 1    
    12   12    7 1    
    13    9    8 1    
    14   10    8 1    
    15   57    8 1    
    16   80    9 1    
    17   11   10 1    
    18   12   10 1    
    19   58   10 1    
    20   81   11 1    
    21   13   12 1    
    22   59   12 1    
    23   14   13 1    
    24   22   13 1    
    25   15   14 2    
    26   60   14 1    
    27   16   15 1    
    28   17   16 ar   
    29   22   16 ar   
    30   18   17 1    
    31   19   17 ar   
    32   61   18 1    
    33   62   18 1    
    34   20   19 ar   
    35   21   20 ar   
    36   63   20 1    
    37   22   21 ar   
    38   24   23 1    
    39   40   23 2    
    40   25   24 2    
    41   26   24 am   
    42   27   26 am   
    43   64   26 1    
    44   28   27 2    
    45   29   27 1    
    46   30   29 2    
    47   40   29 1    
    48   31   30 1    
    49   32   31 ar   
    50   38   31 ar   
    51   33   32 ar   
    52   65   32 1    
    53   34   33 1    
    54   35   33 ar   
    55   74   34 1    
    56   75   34 1    
    57   76   34 1    
    58   36   35 1    
    59   37   35 ar   
    60   77   36 1    
    61   78   36 1    
    62   79   36 1    
    63   38   37 ar   
    64   66   37 1    
    65   39   38 1    
    66   40   39 1    
    67   41   39 1    
    68   42   41 1    
    69   67   41 1    
    70   68   41 1    
    71   43   42 1    
    72   44   42 1    
    73   69   42 1    
    74   82   43 1    
    75   45   44 1    
    76   46   44 1    
    77   70   44 1    
    78   83   45 1    
    79   47   46 1    
    80   48   46 1    
    81   71   46 1    
    82   84   47 1    
    83   49   48 1    
    84   72   48 1    
    85   73   48 1    
    86   50   49 1    
    87   51   50 ar   
    88   52   50 ar   
    89   53   50 1    
@<TRIPOS>SUBSTRUCTURE
     1 FAD666      1 GROUP   
@<TRIPOS>SET

