#    Name: 3ooz_ZOO_1_INTS_M
#    Modification time : Tue Mar 25 04:55:43 2014

@<TRIPOS>MOLECULE
3ooz_ZOO_1_INTS_M
   76     0    12     0     0
SMALL
NO_CHARGES


@<TRIPOS>ATOM
      1 CA         19.2670  -14.8855   17.4820 C.3       4 GLC5        0.0000 
      2 CA         17.9220  -14.2740   16.7700 C.3      12 GLL5        0.0000 
      3 CA         20.6120  -15.4970   18.1940 C.3       8 GLP5        0.0000 
      4 CA         14.7535  -15.0220   14.4310 C.3       4 GLC5        0.0000 
      5 CA         16.1050  -14.0330   15.5840 C.3      12 GLL5        0.0000 
      6 CA         13.4020  -16.0110   13.2780 C.3       8 GLP5        0.0000 
      7 O          15.1515   -7.2215   14.2265 O.2       1 ALC1        0.0000 
      8 O          14.9450   -6.7540   15.4550 O.2       9 ALL1        0.0000 
      9 O          15.3580   -7.6890   12.9980 O.2       5 ALP1        0.0000 
     10 N          15.3515  -13.8170   17.7460 N.am      2 SEC2        0.0000 
     11 N          16.4020  -12.7320   17.3670 N.am     10 SEL2        0.0000 
     12 N          14.3010  -14.9020   18.1250 N.am      6 SEP2        0.0000 
     13 CA         10.0310   -3.8905   11.6560 C.3       4 GLC5        0.0000 
     14 CA         10.4870   -2.2670   12.8620 C.3      12 GLL5        0.0000 
     15 CA          9.5750   -5.5140   10.4500 C.3       8 GLP5        0.0000 
     16 O          16.0720   -5.2725   13.5940 O.2       1 ALC1        0.0000 
     17 O          16.1290   -4.8280   14.9070 O.2       9 ALL1        0.0000 
     18 O          16.0150   -5.7170   12.2810 O.2       5 ALP1        0.0000 
     19 O          16.7975   -3.6320   15.0420 O.2       1 ALC1        0.0000 
     20 O          17.4660   -2.4360   15.1770 O.2       5 ALP1        0.0000 
     21 OD1        16.0720   -5.2725   13.5940 O.co2     3 ASC3        0.0000 
     22 OD1        15.5010   -5.6370   15.8100 O.co2    11 ASL3        0.0000 
     23 OD1        16.0150   -5.7170   12.2810 O.co2     7 ASP3        0.0000 
     24 OD1        15.1515   -7.2215   14.2265 O.co2     3 ASC3        0.0000 
     25 OD1        15.3580   -7.6890   12.9980 O.co2     7 ASP3        0.0000 
     26 OD1        16.7975   -3.6320   15.0420 O.co2     3 ASC3        0.0000 
     27 OD1        17.4660   -2.4360   15.1770 O.co2     7 ASP3        0.0000 
     28 CA          8.1680   -8.2505   15.3710 C.3       4 GLC5        0.0000 
     29 CA          8.6900   -7.4760   16.6500 C.3      12 GLL5        0.0000 
     30 CA          7.6460   -9.0250   14.0920 C.3       8 GLP5        0.0000 
     31 CA          9.1075   -4.4810   12.2910 C.3       4 GLC5        0.0000 
     32 CA          8.6400   -3.4480   14.1320 C.3      12 GLL5        0.0000 
     33 CA          7.3885   -4.3660   15.1550 C.3       4 GLC5        0.0000 
     34 CA          6.1370   -5.2840   16.1780 C.3       8 GLP5        0.0000 
     35 CA         10.7630    0.4370   14.3960 C.3       4 GLC5        0.0000 
     36 CA         10.3510   -1.6130   14.0590 C.3      12 GLL5        0.0000 
     37 CA         11.1750    2.4870   14.7330 C.3       8 GLP5        0.0000 
     38 CA         17.4352  -14.2560   18.4915 C.3       4 GLC5        0.0000 
     39 CA         17.0590  -13.3640   16.2820 C.3      12 GLL5        0.0000 
     40 CA         17.3800  -14.6930   20.4570 C.3       8 GLP5        0.0000 
     41 CA         17.2659  -14.7015   14.4520 C.3       4 GLC5        0.0000 
     42 CA         17.7340  -15.4770   12.8490 C.3       8 GLP5        0.0000 
     43 CA         16.0639  -15.3300   16.4000 C.3       4 GLC5        0.0000 
     44 CA         15.3300  -16.7340   16.7450 C.3       8 GLP5        0.0000 
     45 CA          9.1070   -2.1355   12.0933 C.3       4 GLC5        0.0000 
     46 CA          7.7950   -2.3310   10.7260 C.3       8 GLP5        0.0000 
     47 CA         12.1230   -2.6065   13.0802 C.3       4 GLC5        0.0000 
     48 CA         13.8270   -3.2730   12.7000 C.3       8 GLP5        0.0000 
     49 CA         12.1115   -1.1090   14.2748 C.3       4 GLC5        0.0000 
     50 CA         13.8040   -0.2780   15.0890 C.3       8 GLP5        0.0000 
     51 CA          7.7490   -6.3760   16.4125 C.3       4 GLC5        0.0000 
     52 CA         10.0320   -7.4600   16.6440 C.3      12 GLL5        0.0000 
     53 CA         16.5463   -9.4020   15.0918 C.3       4 GLC5        0.0000 
     54 CA         14.9330   -8.8190   16.8930 C.3      12 GLL5        0.0000 
     55 CA         18.1240   -9.5610   13.8490 C.3       8 GLP5        0.0000 
     56 CA         16.9102  -10.3925   15.1788 C.3       4 GLC5        0.0000 
     57 CA         15.4820  -10.9800   15.8890 C.3      12 GLL5        0.0000 
     58 CA         13.5281  -10.1593   15.0814 C.3       4 GLC5        0.0000 
     59 CA         11.8310  -10.2070   14.0510 C.3       8 GLP5        0.0000 
     60 CA         12.1532   -9.0832   15.5083 C.3       4 GLC5        0.0000 
     61 CA         12.1120   -8.4730   17.2900 C.3      12 GLL5        0.0000 
     62 CA         11.1020   -9.0900   15.5090 C.3       4 GLC5        0.0000 
     63 CA         10.7140   -8.4860   17.2900 C.3      12 GLL5        0.0000 
     64 CA         11.1953   -6.6590   14.0270 C.3       4 GLC5        0.0000 
     65 CA         10.7270   -6.4200   16.0030 C.3      12 GLL5        0.0000 
     66 CA         10.9670   -6.9040   12.0520 C.3       8 GLP5        0.0000 
     67 CA         11.6273   -8.3105   15.0265 C.3       4 GLC5        0.0000 
     68 CA         10.3347   -5.9262   13.5615 C.3       4 GLC5        0.0000 
     69 CA         10.0130   -5.3800   15.3460 C.3      12 GLL5        0.0000 
     70 CA          7.9197   -5.1162   15.6245 C.3       4 GLC5        0.0000 
     71 CA          8.4543   -6.3712   14.3595 C.3       4 GLC5        0.0000 
     72 CA          9.3920   -4.5170   14.7960 C.3      12 GLL5        0.0000 
     73 CA          7.2060   -7.7940   13.6480 C.3       8 GLP5        0.0000 
     74 CA          6.9050   -2.3368   13.8302 C.3       4 GLC5        0.0000 
     75 CA          4.9710   -1.9140   13.2560 C.3       8 GLP5        0.0000 
     76 CA          8.3170   -2.5453   12.5652 C.3       4 GLC5        0.0000 
@<TRIPOS>BOND
@<TRIPOS>SUBSTRUCTURE
     1 ALC1        7 GROUP        1 X    ALC  0     ROOT ALC X 1
     2 SEC2       10 GROUP        1 X    SEC  0     **** SEC X 2
     3 ASC3       21 GROUP        1 X    ASC  0     **** ASC X 3
     4 GLC5        1 GROUP        1 X    GLC  0     **** GLC X 6
     5 ALP1        9 GROUP        1 Y    ALP  0     ROOT ALP Y 8
     6 SEP2       12 GROUP        1 Y    SEP  0     **** SEP Y 9
     7 ASP3       23 GROUP        1 Y    ASP  0     **** ASP Y 10
     8 GLP5        3 GROUP        1 Y    GLP  0     **** GLP Y 13
     9 ALL1        8 GROUP        1 Z    ALL  0     ROOT ALL Z 15
    10 SEL2       11 GROUP        1 Z    SEL  0     **** SEL Z 16
    11 ASL3       22 GROUP        1 Z    ASL  0     **** ASL Z 17
    12 GLL5        2 GROUP        1 Z    GLL  0     **** GLL Z 20
@<TRIPOS>SET

