#    Name: 3ooz_ZOO_1_ligand
#    Modification time : Tue Mar 25 04:55:43 2014

@<TRIPOS>MOLECULE
3ooz_ZOO_1_ligand
   51    53     1     0     0
SMALL
NO_CHARGES


@<TRIPOS>ATOM
      1 C1         15.9290   -4.1890   17.8560 C.3       1 ZOO1        0.0000 
      2 F1         17.9220  -14.2740   16.7700 F         1 ZOO1        0.0000 
      3 N1         15.4130   -5.3580   17.1410 N.am      1 ZOO1        0.0000 
      4 O1         14.4670   -6.4710   18.9600 O.2       1 ZOO1        0.0000 
      5 C2         14.7540   -6.3850   17.7700 C.2       1 ZOO1        0.0000 
      6 F2         16.1050  -14.0330   15.5840 F         1 ZOO1        0.0000 
      7 N2         14.9450   -6.7540   15.4550 N.pl3     1 ZOO1        0.0000 
      8 O2         16.4020  -12.7320   17.3670 O.3       1 ZOO1        0.0000 
      9 C3         14.3690   -7.3970   16.6730 C.3       1 ZOO1        0.0000 
     10 F3         10.4870   -2.2670   12.8620 F         1 ZOO1        0.0000 
     11 N3         16.1290   -4.8280   14.9070 N.pl3     1 ZOO1        0.0000 
     12 C4         15.5010   -5.6370   15.8100 C.cat     1 ZOO1        0.0000 
     13 F4          8.6900   -7.4760   16.6500 F         1 ZOO1        0.0000 
     14 C5         14.9330   -8.8190   16.8930 C.ar      1 ZOO1        0.0000 
     15 C6         15.3700   -9.3200   18.1340 C.ar      1 ZOO1        0.0000 
     16 C7         15.8530  -10.6310   18.2420 C.ar      1 ZOO1        0.0000 
     17 C8         15.9110  -11.4680   17.1280 C.ar      1 ZOO1        0.0000 
     18 C9         15.4820  -10.9800   15.8890 C.ar      1 ZOO1        0.0000 
     19 C10        15.0040   -9.6670   15.7760 C.ar      1 ZOO1        0.0000 
     20 C11        17.0590  -13.3640   16.2820 C.3       1 ZOO1        0.0000 
     21 C12        12.8390   -7.4460   16.6410 C.ar      1 ZOO1        0.0000 
     22 C13        12.1120   -8.4730   17.2900 C.ar      1 ZOO1        0.0000 
     23 C14        10.7140   -8.4860   17.2900 C.ar      1 ZOO1        0.0000 
     24 C15        10.0320   -7.4600   16.6440 C.ar      1 ZOO1        0.0000 
     25 C16        10.7270   -6.4200   16.0030 C.ar      1 ZOO1        0.0000 
     26 C17        12.1200   -6.4080   16.0010 C.ar      1 ZOO1        0.0000 
     27 C18        10.0130   -5.3800   15.3460 C.1       1 ZOO1        0.0000 
     28 C19         9.3920   -4.5170   14.7960 C.1       1 ZOO1        0.0000 
     29 C20         8.6400   -3.4480   14.1320 C.3       1 ZOO1        0.0000 
     30 C21         9.0380   -2.0710   14.6770 C.3       1 ZOO1        0.0000 
     31 C22        10.3510   -1.6130   14.0590 C.3       1 ZOO1        0.0000 
     32 H          14.8594   -7.1822   14.6098 H         1 ZOO1        0.0000 
     33 H          16.5287   -3.9874   15.2727 H         1 ZOO1        0.0000 
     34 H          16.1341   -5.1471   13.9593 H         1 ZOO1        0.0000 
     35 H          15.3334   -8.7175   18.9652 H         1 ZOO1        0.0000 
     36 H          16.1698  -10.9796   19.1608 H         1 ZOO1        0.0000 
     37 H          15.5168  -11.5838   15.0599 H         1 ZOO1        0.0000 
     38 H          14.6980   -9.3157   14.8541 H         1 ZOO1        0.0000 
     39 H          17.5449  -12.6241   15.6728 H         1 ZOO1        0.0000 
     40 H          12.6319   -9.2242   17.7710 H         1 ZOO1        0.0000 
     41 H          10.2058   -9.2363   17.7566 H         1 ZOO1        0.0000 
     42 H          12.6336   -5.6520   15.5389 H         1 ZOO1        0.0000 
     43 H           7.5619   -3.5767   14.2861 H         1 ZOO1        0.0000 
     44 H           8.8270   -3.4537   13.0514 H         1 ZOO1        0.0000 
     45 H           9.1471   -2.1345   15.7570 H         1 ZOO1        0.0000 
     46 H           8.2550   -1.3550   14.4392 H         1 ZOO1        0.0000 
     47 H          10.2978   -0.5248   13.9554 H         1 ZOO1        0.0000 
     48 H          11.1449   -1.8481   14.7747 H         1 ZOO1        0.0000 
     49 H          16.5995   -4.4456   18.5522 H         1 ZOO1        0.0000 
     50 H          16.3799   -3.5449   17.2381 H         1 ZOO1        0.0000 
     51 H          15.2003   -3.6870   18.3218 H         1 ZOO1        0.0000 
@<TRIPOS>BOND
     1    3    1 1    
     2   49    1 1    
     3   50    1 1    
     4   51    1 1    
     5   20    2 1    
     6    5    3 am   
     7   12    3 ar   
     8    5    4 2    
     9    9    5 1    
    10   20    6 1    
    11    9    7 1    
    12   12    7 ar   
    13   32    7 1    
    14   17    8 1    
    15   20    8 1    
    16   14    9 1    
    17   21    9 1    
    18   31   10 1    
    19   12   11 ar   
    20   33   11 1    
    21   34   11 1    
    22   24   13 1    
    23   15   14 ar   
    24   19   14 ar   
    25   16   15 ar   
    26   35   15 1    
    27   17   16 ar   
    28   36   16 1    
    29   18   17 ar   
    30   19   18 ar   
    31   37   18 1    
    32   38   19 1    
    33   39   20 1    
    34   22   21 ar   
    35   26   21 ar   
    36   23   22 ar   
    37   40   22 1    
    38   24   23 ar   
    39   41   23 1    
    40   25   24 ar   
    41   26   25 ar   
    42   27   25 1    
    43   42   26 1    
    44   28   27 3    
    45   29   28 1    
    46   30   29 1    
    47   43   29 1    
    48   44   29 1    
    49   31   30 1    
    50   45   30 1    
    51   46   30 1    
    52   47   31 1    
    53   48   31 1    
@<TRIPOS>SUBSTRUCTURE
     1 ZOO1        1 GROUP   
@<TRIPOS>SET

