#    Name: 2OAH_1_CAVITY_N1_6.mol2
#    Modification time : Tue Mar 11 02:18:11 2014

@<TRIPOS>MOLECULE
2OAH_1_CAVITY_N1_6.mol2
   99     0     6     0     0
SMALL
NO_CHARGES


@<TRIPOS>ATOM
      1 CA         27.6674   42.7579   -2.9755 C.3       5 GLY6        0.0000 
      2 CA         25.5597   42.7357   -3.2142 C.3       5 GLY6        0.0000 
      3 CA         24.5287   41.6692   -3.4374 C.3       5 GLY6        0.0000 
      4 N          34.9010   41.6310   -0.7606 N.2       2 ALA2        0.0000 
      5 O          27.4552   44.7191   -1.2847 O.2       2 ALA2        0.0000 
      6 DU         26.3785   45.7633   -1.3002 H         6 CUB7        0.0000 
      7 O          25.3017   46.8075   -1.3157 O.2       2 ALA2        0.0000 
      8 CA         28.5778   41.5642   -1.4767 C.3       5 GLY6        0.0000 
      9 CA         27.5010   42.6084   -1.4923 C.3       5 GLY6        0.0000 
     10 DU         26.4243   43.6526   -1.5078 H         6 CUB7        0.0000 
     11 DU         25.3475   44.6968   -1.5234 H         6 CUB7        0.0000 
     12 OG         24.2707   45.7410   -1.5389 O.2       1 SER1        0.0000 
     13 CA         25.3933   42.5862   -1.7310 C.3       5 GLY6        0.0000 
     14 O          24.3165   43.6304   -1.7465 O.2       2 ALA2        0.0000 
     15 OG         23.2398   44.6746   -1.7621 O.2       1 SER1        0.0000 
     16 CZ         35.7655   42.5479    0.9458 C.ar      4 PHE5        0.0000 
     17 CA         34.6888   43.5921    0.9302 C.3       5 GLY6        0.0000 
     18 N          31.4585   46.7247    0.8836 N.2       2 ALA2        0.0000 
     19 CZ         35.8113   40.4373    0.7381 C.ar      4 PHE5        0.0000 
     20 N          34.7346   41.4815    0.7226 N.2       2 ALA2        0.0000 
     21 N          33.6578   42.5256    0.7071 N.2       2 ALA2        0.0000 
     22 O          29.3508   46.7024    0.6449 O.2       2 ALA2        0.0000 
     23 CZ         34.7804   39.3708    0.5150 C.ar      4 PHE5        0.0000 
     24 N          33.7036   40.4150    0.4994 N.2       2 ALA2        0.0000 
     25 N          32.6268   41.4592    0.4839 N.2       2 ALA2        0.0000 
     26 N          31.5501   42.5034    0.4684 N.2       2 ALA2        0.0000 
     27 O          28.3198   45.6360    0.4217 O.2       2 ALA2        0.0000 
     28 DU         27.2430   46.6802    0.4062 H         6 CUB7        0.0000 
     29 O          26.1663   47.7244    0.3907 O.2       2 ALA2        0.0000 
     30 CA         32.6726   39.3486    0.2763 C.3       5 GLY6        0.0000 
     31 CA         31.5959   40.3928    0.2607 C.3       5 GLY6        0.0000 
     32 CA         30.5191   41.4370    0.2452 C.3       5 GLY6        0.0000 
     33 CA         29.4423   42.4812    0.2296 C.3       5 GLY6        0.0000 
     34 O          28.3656   43.5253    0.2141 O.2       2 ALA2        0.0000 
     35 O          27.2888   44.5695    0.1986 O.2       2 ALA2        0.0000 
     36 O          26.2121   45.6137    0.1830 O.2       2 ALA2        0.0000 
     37 O          25.1353   46.6579    0.1675 O.2       2 ALA2        0.0000 
     38 O          30.5649   39.3263    0.0376 O.2       2 ALA2        0.0000 
     39 O          29.4881   40.3705    0.0220 O.2       2 ALA2        0.0000 
     40 CA         28.4114   41.4147    0.0065 C.3       5 GLY6        0.0000 
     41 DU         27.3346   42.4589   -0.0091 H         6 CUB7        0.0000 
     42 DU         26.2579   43.5031   -0.0246 H         6 CUB7        0.0000 
     43 O          25.1811   44.5473   -0.0401 O.2       2 ALA2        0.0000 
     44 OG         24.1043   45.5915   -0.0557 O.2       1 SER1        0.0000 
     45 CA         26.3036   41.3925   -0.2322 C.3       5 GLY6        0.0000 
     46 O          25.2269   42.4367   -0.2478 O.2       2 ALA2        0.0000 
     47 O          24.1501   43.4809   -0.2633 O.2       2 ALA2        0.0000 
     48 CZ         35.5991   42.3984    2.4290 C.ar      4 PHE5        0.0000 
     49 CA         34.5224   43.4426    2.4134 C.3       5 GLY6        0.0000 
     50 CA         33.4456   44.4868    2.3979 C.3       5 GLY6        0.0000 
     51 CA         35.6449   40.2877    2.2214 C.3       5 GLY6        0.0000 
     52 CA         34.5682   41.3319    2.2058 C.3       5 GLY6        0.0000 
     53 N          33.4914   42.3761    2.1903 N.2       2 ALA2        0.0000 
     54 N          32.4146   43.4203    2.1747 N.2       2 ALA2        0.0000 
     55 OG         31.3379   44.4645    2.1592 O.2       1 SER1        0.0000 
     56 CA         34.6140   39.2213    1.9982 C.3       5 GLY6        0.0000 
     57 N          33.5372   40.2655    1.9827 N.2       2 ALA2        0.0000 
     58 N          32.4604   41.3097    1.9671 N.2       2 ALA2        0.0000 
     59 N          31.3837   42.3539    1.9516 N.2       2 ALA2        0.0000 
     60 O          30.3069   43.3981    1.9360 O.2       2 ALA2        0.0000 
     61 OG         29.2302   44.4423    1.9205 O.2       1 SER1        0.0000 
     62 CA         28.1534   45.4865    1.9050 C.3       5 GLY6        0.0000 
     63 CA         27.0766   46.5307    1.8894 C.3       5 GLY6        0.0000 
     64 CZ         33.5830   38.1549    1.7750 C.ar      4 PHE5        0.0000 
     65 N          32.5062   39.1990    1.7595 N.2       2 ALA2        0.0000 
     66 N          31.4295   40.2432    1.7440 N.2       2 ALA2        0.0000 
     67 N          30.3527   41.2874    1.7284 N.2       2 ALA2        0.0000 
     68 CA         29.2759   42.3316    1.7129 C.3       5 GLY6        0.0000 
     69 O          28.1992   43.3758    1.6973 O.2       2 ALA2        0.0000 
     70 O          27.1224   44.4200    1.6818 O.2       2 ALA2        0.0000 
     71 O          26.0457   45.4642    1.6663 O.2       2 ALA2        0.0000 
     72 CZ         31.4753   38.1326    1.5363 C.ar      4 PHE5        0.0000 
     73 N          30.3985   39.1768    1.5208 N.2       2 ALA2        0.0000 
     74 OG         29.3217   40.2210    1.5052 O.2       1 SER1        0.0000 
     75 OG         28.2450   41.2652    1.4897 O.2       1 SER1        0.0000 
     76 CA         27.1682   42.3094    1.4742 C.3       5 GLY6        0.0000 
     77 CA         26.0915   43.3536    1.4586 C.3       5 GLY6        0.0000 
     78 CZ         30.4443   37.0662    1.3132 C.ar      4 PHE5        0.0000 
     79 OG         29.3675   38.1104    1.2976 O.2       1 SER1        0.0000 
     80 OG         28.2908   39.1546    1.2821 O.2       1 SER1        0.0000 
     81 OG         27.2140   40.1988    1.2665 O.2       1 SER1        0.0000 
     82 CA         26.1372   41.2429    1.2510 C.3       5 GLY6        0.0000 
     83 CA         34.3560   43.2931    3.8967 C.3       5 GLY6        0.0000 
     84 N          33.2792   44.3373    3.8811 N.2       2 ALA2        0.0000 
     85 OG         32.2025   45.3814    3.8656 O.2       1 SER1        0.0000 
     86 N          33.3250   42.2266    3.6735 N.2       2 ALA2        0.0000 
     87 N          32.2482   43.2708    3.6580 N.2       2 ALA2        0.0000 
     88 OG         31.1715   44.3150    3.6424 O.2       1 SER1        0.0000 
     89 O          30.1405   43.2486    3.4193 O.2       2 ALA2        0.0000 
     90 N          31.3089   37.9831    3.0196 N.2       2 ALA2        0.0000 
     91 NZ         30.2779   36.9166    2.7964 N.2       3 LYS4        0.0000 
     92 OG         29.2011   37.9608    2.7808 O.2       1 SER1        0.0000 
     93 CA         34.1896   43.1435    5.3799 C.3       5 GLY6        0.0000 
     94 CA         33.1128   44.1877    5.3644 C.3       5 GLY6        0.0000 
     95 N          32.0361   45.2319    5.3488 N.2       2 ALA2        0.0000 
     96 N          32.0818   43.1213    5.1412 N.2       2 ALA2        0.0000 
     97 O          31.0051   44.1655    5.1257 O.2       2 ALA2        0.0000 
     98 CA         32.9464   44.0382    6.8476 C.3       5 GLY6        0.0000 
     99 N          31.9154   42.9718    6.6244 N.2       2 ALA2        0.0000 
@<TRIPOS>BOND
@<TRIPOS>SUBSTRUCTURE
     1 SER1       12 GROUP   
     2 ALA2        4 GROUP   
     3 LYS4       91 GROUP   
     4 PHE5       16 GROUP   
     5 GLY6        1 GROUP   
     6 CUB7        6 GROUP   
@<TRIPOS>SET

