#    Name: 2oah_QIN_1_INTS_M
#    Modification time : Tue Mar 25 22:07:34 2014

@<TRIPOS>MOLECULE
2oah_QIN_1_INTS_M
   93     0    12     0     0
SMALL
NO_CHARGES


@<TRIPOS>ATOM
      1 CA         27.9425   40.1375   -0.6275 C.3       4 GLC5        0.0000 
      2 CA         28.4860   41.5920    0.6540 C.3      12 GLL5        0.0000 
      3 CA         27.3990   38.6830   -1.9090 C.3       8 GLP5        0.0000 
      4 CA         26.0730   40.9815   -1.5480 C.3       4 GLC5        0.0000 
      5 CA         25.9500   42.5710   -0.5630 C.3      12 GLL5        0.0000 
      6 CA         26.1960   39.3920   -2.5330 C.3       8 GLP5        0.0000 
      7 CA         24.6555   42.0335    0.7205 C.3       4 GLC5        0.0000 
      8 CA         23.3610   41.4960    2.0040 C.3       8 GLP5        0.0000 
      9 O          31.0940   40.0720    3.1960 O.2       1 ALC1        0.0000 
     10 O          30.8860   39.4010    1.9370 O.2       9 ALL1        0.0000 
     11 O          31.3020   40.7430    4.4550 O.2       5 ALP1        0.0000 
     12 N          29.7505   38.2945   -1.3060 N.am      2 SEC2        0.0000 
     13 N          30.1170   39.2800   -0.1710 N.am     10 SEL2        0.0000 
     14 N          29.3840   37.3090   -2.4410 N.am      6 SEP2        0.0000 
     15 N          30.0885   39.5085   -1.6135 N.am      2 SEC2        0.0000 
     16 N          30.0600   39.7370   -3.0560 N.am      6 SEP2        0.0000 
     17 N          25.9720   45.1005    3.8755 N.am      2 SEC2        0.0000 
     18 N          26.2800   44.6880    2.5140 N.am     10 SEL2        0.0000 
     19 N          25.6640   45.5130    5.2370 N.am      6 SEP2        0.0000 
     20 CA         33.0950   38.3155   -0.7435 C.3       4 GLC5        0.0000 
     21 CA         34.0190   39.7650    0.2360 C.3      12 GLL5        0.0000 
     22 CA         32.1710   36.8660   -1.7230 C.3       8 GLP5        0.0000 
     23 CA         35.5895   41.2920    2.9740 C.3       4 GLC5        0.0000 
     24 CA         34.8070   42.0190    1.0610 C.3      12 GLL5        0.0000 
     25 CA         36.3720   40.5650    4.8870 C.3       8 GLP5        0.0000 
     26 CA         35.2805   44.0145    1.0145 C.3       4 GLC5        0.0000 
     27 CA         35.7540   46.0100    0.9680 C.3       8 GLP5        0.0000 
     28 CA         32.7155   41.4470   -1.3660 C.3       4 GLC5        0.0000 
     29 CA         34.5650   40.9450   -0.2380 C.3      12 GLL5        0.0000 
     30 CA         30.8660   41.9490   -2.4940 C.3       8 GLP5        0.0000 
     31 OD1        31.5655   37.4635    5.2280 O.co2     3 ASC3        0.0000 
     32 OD1        30.7930   37.8100    4.1610 O.co2    11 ASL3        0.0000 
     33 OD1        32.3380   37.1170    6.2950 O.co2     7 ASP3        0.0000 
     34 OD1        32.2005   36.9720    4.4775 O.co2     3 ASC3        0.0000 
     35 OD1        33.6080   36.1340    4.7940 O.co2     7 ASP3        0.0000 
     36 OD1        30.2055   37.7980    5.5655 O.co2     3 ASC3        0.0000 
     37 OD1        29.6180   37.7860    6.9700 O.co2     7 ASP3        0.0000 
     38 OD1        29.4935   37.6795    4.7370 O.co2     3 ASC3        0.0000 
     39 OD1        28.1940   37.5490    5.3130 O.co2     7 ASP3        0.0000 
     40 O          31.5655   37.4635    5.2280 O.2       1 ALC1        0.0000 
     41 O          30.7930   37.8100    4.1610 O.2       9 ALL1        0.0000 
     42 O          32.3380   37.1170    6.2950 O.2       5 ALP1        0.0000 
     43 O          32.2005   36.9720    4.4775 O.2       1 ALC1        0.0000 
     44 O          33.6080   36.1340    4.7940 O.2       5 ALP1        0.0000 
     45 O          29.4935   37.6795    4.7370 O.2       1 ALC1        0.0000 
     46 O          28.1940   37.5490    5.3130 O.2       5 ALP1        0.0000 
     47 O          31.0475   39.2765    4.3080 O.2       1 ALC1        0.0000 
     48 CA         27.8650   37.0250   -0.5820 C.3       4 GLC5        0.0000 
     49 CA         28.3310   35.3670    0.7450 C.3      12 GLL5        0.0000 
     50 CA         29.8870   35.0975   -1.4580 C.3       4 GLC5        0.0000 
     51 CA         28.4240   34.3050   -0.3370 C.3      12 GLL5        0.0000 
     52 CA         31.3500   35.8900   -2.5790 C.3       8 GLP5        0.0000 
     53 O          30.3425   45.7015    3.1170 O.2       1 ALC1        0.0000 
     54 O          30.9880   44.7510    2.0730 O.2       9 ALL1        0.0000 
     55 O          29.6970   46.6520    4.1610 O.2       5 ALP1        0.0000 
     56 CA         34.0865   45.3175    1.7180 C.3       4 GLC5        0.0000 
     57 CA         32.4190   44.6250    2.4680 C.3      12 GLL5        0.0000 
     58 CA         35.2490   43.1320    5.6070 C.3       4 GLC5        0.0000 
     59 CA         33.8230   44.0170    4.5130 C.3      12 GLL5        0.0000 
     60 CA         36.6750   42.2470    6.7010 C.3       8 GLP5        0.0000 
     61 CA         33.9040   46.5715    4.7345 C.3       4 GLC5        0.0000 
     62 CA         32.6220   44.7900    5.0440 C.3      12 GLL5        0.0000 
     63 CA         35.1860   48.3530    4.4250 C.3       8 GLP5        0.0000 
     64 CA         30.6485   42.8855    4.4320 C.3       4 GLC5        0.0000 
     65 CA         32.5040   43.9550    3.8010 C.3      12 GLL5        0.0000 
     66 CA         28.7930   41.8160    5.0630 C.3       8 GLP5        0.0000 
     67 CA         31.9400   42.2455    6.5240 C.3       4 GLC5        0.0000 
     68 CA         32.0480   44.2910    6.3270 C.3      12 GLL5        0.0000 
     69 CA         31.8320   40.2000    6.7210 C.3       8 GLP5        0.0000 
     70 CA         30.4205   43.0535    5.6950 C.3       4 GLC5        0.0000 
     71 CA         30.0570   44.9015    5.9485 C.3       4 GLC5        0.0000 
     72 CA         28.0660   45.5120    5.5700 C.3       8 GLP5        0.0000 
     73 CA         30.7200   44.6880    8.0705 C.3       4 GLC5        0.0000 
     74 CA         29.3920   45.0850    9.8140 C.3       8 GLP5        0.0000 
     75 CA         30.5703   41.8787   -0.6165 C.3       4 GLC5        0.0000 
     76 CA         30.7200   42.3120    1.5090 C.3      12 GLL5        0.0000 
     77 CA         29.4680   41.9776    3.1806 C.3       4 GLC5        0.0000 
     78 CA         29.8290   41.3050    1.0130 C.3      12 GLL5        0.0000 
     79 CA         29.5530   42.1052   -0.8783 C.3       4 GLC5        0.0000 
     80 CA         27.3285   41.9952    2.4552 C.3       4 GLC5        0.0000 
     81 CA         26.4170   41.7290    4.1730 C.3       8 GLP5        0.0000 
     82 CA         32.7596   36.7996    1.2614 C.3       4 GLC5        0.0000 
     83 CA         31.7120   38.1890    1.9370 C.3      12 GLL5        0.0000 
     84 CA         33.2730   35.4880    0.0970 C.3       8 GLP5        0.0000 
     85 CA         35.0352   38.0330    2.7750 C.3       4 GLC5        0.0000 
     86 CA         33.1150   38.5520    2.4460 C.3      12 GLL5        0.0000 
     87 CA         36.6280   36.9320    3.4870 C.3       8 GLP5        0.0000 
     88 CA         35.1722   40.4555    3.4347 C.3       4 GLC5        0.0000 
     89 CA         33.7700   39.7160    1.6800 C.3      12 GLL5        0.0000 
     90 CA         31.4877   35.9002    0.8967 C.3       4 GLC5        0.0000 
     91 CA         29.6730   36.7230    2.3350 C.3      12 GLL5        0.0000 
     92 CA         34.0376   44.9831    6.2994 C.3       4 GLC5        0.0000 
     93 CA         35.4400   45.6190    7.0460 C.3       8 GLP5        0.0000 
@<TRIPOS>BOND
@<TRIPOS>SUBSTRUCTURE
     1 ALC1        9 GROUP        1 X    ALC  0     ROOT ALC X 1
     2 SEC2       12 GROUP        1 X    SEC  0     **** SEC X 2
     3 ASC3       31 GROUP        1 X    ASC  0     **** ASC X 3
     4 GLC5        1 GROUP        1 X    GLC  0     **** GLC X 6
     5 ALP1       11 GROUP        1 Y    ALP  0     ROOT ALP Y 8
     6 SEP2       14 GROUP        1 Y    SEP  0     **** SEP Y 9
     7 ASP3       33 GROUP        1 Y    ASP  0     **** ASP Y 10
     8 GLP5        3 GROUP        1 Y    GLP  0     **** GLP Y 13
     9 ALL1       10 GROUP        1 Z    ALL  0     ROOT ALL Z 15
    10 SEL2       13 GROUP        1 Z    SEL  0     **** SEL Z 16
    11 ASL3       32 GROUP        1 Z    ASL  0     **** ASL Z 17
    12 GLL5        2 GROUP        1 Z    GLL  0     **** GLL Z 20
@<TRIPOS>SET

