#    Name: 2oah_QIN_1_ligand
#    Modification time : Tue Mar 25 22:07:34 2014

@<TRIPOS>MOLECULE
2oah_QIN_1_ligand
   72    74     1     0     0
SMALL
NO_CHARGES


@<TRIPOS>ATOM
      1 C15        30.1940   43.6350    1.6580 C.ar      1 QIN902      0.0000 
      2 C16        30.7200   42.3120    1.5090 C.ar      1 QIN902      0.0000 
      3 C17        29.8290   41.3050    1.0130 C.ar      1 QIN902      0.0000 
      4 C18        28.4860   41.5920    0.6540 C.ar      1 QIN902      0.0000 
      5 C19        27.9940   42.9310    0.8210 C.ar      1 QIN902      0.0000 
      6 N3         28.8720   43.8650    1.3240 N.ar      1 QIN902      0.0000 
      7 N4         26.6740   43.2650    0.5240 N.pl3     1 QIN902      0.0000 
      8 S1         25.9510   44.6060    1.1380 S.o2      1 QIN902      0.0000 
      9 O1         24.5700   44.4920    0.7610 O.2       1 QIN902      0.0000 
     10 C29        25.9500   42.5710   -0.5630 C.3       1 QIN902      0.0000 
     11 C34        30.2780   39.9190    0.8510 C.2       1 QIN902      0.0000 
     12 N35        30.8860   39.4010    1.9370 N.am      1 QIN902      0.0000 
     13 C36        31.7120   38.1890    1.9370 C.3       1 QIN902      0.0000 
     14 C28        31.0430   37.1520    2.8740 C.3       1 QIN902      0.0000 
     15 C56        33.1150   38.5520    2.4460 C.3       1 QIN902      0.0000 
     16 O4         30.1170   39.2800   -0.1710 O.2       1 QIN902      0.0000 
     17 C22        26.6280   46.0610    0.3270 C.3       1 QIN902      0.0000 
     18 O2         26.2800   44.6880    2.5140 O.2       1 QIN902      0.0000 
     19 C61        34.0190   39.7650    0.2360 C.2       1 QIN902      0.0000 
     20 C62        33.7700   39.7160    1.6800 C.2       1 QIN902      0.0000 
     21 C63        34.1750   40.9760    2.2850 C.2       1 QIN902      0.0000 
     22 S2         34.8070   42.0190    1.0610 S.3       1 QIN902      0.0000 
     23 C64        34.5650   40.9450   -0.2380 C.2       1 QIN902      0.0000 
     24 C8         29.6730   36.7230    2.3350 C.3       1 QIN902      0.0000 
     25 N1         30.7930   37.8100    4.1610 N.4       1 QIN902      0.0000 
     26 C10        29.7320   35.9020    1.0580 C.3       1 QIN902      0.0000 
     27 C11        28.3310   35.3670    0.7450 C.3       1 QIN902      0.0000 
     28 C13        28.4240   34.3050   -0.3370 C.3       1 QIN902      0.0000 
     29 N2         30.9880   44.7510    2.0730 N.pl3     1 QIN902      0.0000 
     30 C5         32.4190   44.6250    2.4680 C.3       1 QIN902      0.0000 
     31 C1         33.8230   44.0170    4.5130 C.3       1 QIN902      0.0000 
     32 C2         32.6220   44.7900    5.0440 C.3       1 QIN902      0.0000 
     33 C3         32.5040   43.9550    3.8010 C.3       1 QIN902      0.0000 
     34 C4         32.0480   44.2910    6.3270 C.3       1 QIN902      0.0000 
     35 H          31.6636   42.0999    1.7397 H         1 QIN902      0.0000 
     36 H          27.8817   40.8735    0.2874 H         1 QIN902      0.0000 
     37 H          30.7887   39.8692    2.8816 H         1 QIN902      0.0000 
     38 H          31.7839   37.7766    0.9628 H         1 QIN902      0.0000 
     39 H          31.6650   36.3163    2.9863 H         1 QIN902      0.0000 
     40 H          33.7629   37.6675    2.3680 H         1 QIN902      0.0000 
     41 H          33.0504   38.8200    3.5100 H         1 QIN902      0.0000 
     42 H          33.7977   38.9858   -0.3273 H         1 QIN902      0.0000 
     43 H          34.1610   41.2937    3.1125 H         1 QIN902      0.0000 
     44 H          34.8122   41.2594   -1.0547 H         1 QIN902      0.0000 
     45 H          29.0655   37.6278    2.1565 H         1 QIN902      0.0000 
     46 H          29.1534   36.1409    3.1165 H         1 QIN902      0.0000 
     47 H          30.4092   35.0694    1.1906 H         1 QIN902      0.0000 
     48 H          30.0661   36.5245    0.2393 H         1 QIN902      0.0000 
     49 H          27.7071   36.1838    0.4017 H         1 QIN902      0.0000 
     50 H          27.9062   34.9358    1.6438 H         1 QIN902      0.0000 
     51 H          30.5750   45.6908    2.1082 H         1 QIN902      0.0000 
     52 H          32.8747   45.6134    2.5254 H         1 QIN902      0.0000 
     53 H          32.9562   44.0339    1.7263 H         1 QIN902      0.0000 
     54 H          33.9144   43.2354    5.0411 H         1 QIN902      0.0000 
     55 H          34.3797   44.6340    4.0574 H         1 QIN902      0.0000 
     56 H          32.7525   45.7014    4.7666 H         1 QIN902      0.0000 
     57 H          32.0888   43.1162    4.0592 H         1 QIN902      0.0000 
     58 H          26.4024   42.6916   -1.4466 H         1 QIN902      0.0000 
     59 H          25.8869   41.5867   -0.3979 H         1 QIN902      0.0000 
     60 H          25.0153   42.9118   -0.6633 H         1 QIN902      0.0000 
     61 H          27.6155   46.1375    0.4651 H         1 QIN902      0.0000 
     62 H          26.4706   46.0428   -0.6604 H         1 QIN902      0.0000 
     63 H          26.2174   46.9043    0.6738 H         1 QIN902      0.0000 
     64 H          31.0980   38.7623    4.1567 H         1 QIN902      0.0000 
     65 H          29.8203   37.8149    4.3929 H         1 QIN902      0.0000 
     66 H          31.2707   37.3526    4.9110 H         1 QIN902      0.0000 
     67 H          28.8161   34.6689   -1.1819 H         1 QIN902      0.0000 
     68 H          28.9981   33.5364   -0.0547 H         1 QIN902      0.0000 
     69 H          27.5260   33.9307   -0.5681 H         1 QIN902      0.0000 
     70 H          32.7187   44.3153    7.0683 H         1 QIN902      0.0000 
     71 H          31.2653   44.8392    6.6218 H         1 QIN902      0.0000 
     72 H          31.7311   43.3457    6.2493 H         1 QIN902      0.0000 
@<TRIPOS>BOND
     1    2    1 ar   
     2    6    1 ar   
     3   29    1 1    
     4    3    2 ar   
     5   35    2 1    
     6    4    3 ar   
     7   11    3 1    
     8    5    4 ar   
     9   36    4 1    
    10    6    5 ar   
    11    7    5 1    
    12    8    7 1    
    13   10    7 1    
    14    9    8 2    
    15   17    8 1    
    16   18    8 2    
    17   58   10 1    
    18   59   10 1    
    19   60   10 1    
    20   12   11 am   
    21   16   11 2    
    22   13   12 1    
    23   37   12 1    
    24   14   13 1    
    25   15   13 1    
    26   38   13 1    
    27   24   14 1    
    28   25   14 1    
    29   39   14 1    
    30   20   15 1    
    31   40   15 1    
    32   41   15 1    
    33   61   17 1    
    34   62   17 1    
    35   63   17 1    
    36   20   19 1    
    37   23   19 2    
    38   42   19 1    
    39   21   20 2    
    40   22   21 1    
    41   43   21 1    
    42   23   22 1    
    43   44   23 1    
    44   26   24 1    
    45   45   24 1    
    46   46   24 1    
    47   64   25 1    
    48   65   25 1    
    49   66   25 1    
    50   27   26 1    
    51   47   26 1    
    52   48   26 1    
    53   28   27 1    
    54   49   27 1    
    55   50   27 1    
    56   67   28 1    
    57   68   28 1    
    58   69   28 1    
    59   30   29 1    
    60   51   29 1    
    61   33   30 1    
    62   52   30 1    
    63   53   30 1    
    64   32   31 1    
    65   33   31 1    
    66   54   31 1    
    67   55   31 1    
    68   33   32 1    
    69   34   32 1    
    70   56   32 1    
    71   57   33 1    
    72   70   34 1    
    73   71   34 1    
    74   72   34 1    
@<TRIPOS>SUBSTRUCTURE
     1 QIN902      1 GROUP   
@<TRIPOS>SET

