#    Name: 1bjy_CTC_1_INTS_M
#    Modification time : Mon Mar 24 19:36:11 2014

@<TRIPOS>MOLECULE
1bjy_CTC_1_INTS_M
   57     0     9     0     0
SMALL
NO_CHARGES


@<TRIPOS>ATOM
      1 CA         32.1495   14.9675   55.9990 C.3       3 GLC5        0.0000 
      2 CA         31.8440   17.0950   55.4970 C.3       9 GLL5        0.0000 
      3 CA         32.4550   12.8400   56.5010 C.3       6 GLP5        0.0000 
      4 CA         33.1340   18.8325   55.6520 C.3       3 GLC5        0.0000 
      5 CA         34.4240   20.5700   55.8070 C.3       6 GLP5        0.0000 
      6 N          32.6680   14.3570   55.2510 N.am      2 SEC2        0.0000 
      7 N          33.5040   15.5190   55.0830 N.am      8 SEL2        0.0000 
      8 N          31.8320   13.1950   55.4190 N.am      5 SEP2        0.0000 
      9 N          33.7190   16.1095   53.7005 N.am      2 SEC2        0.0000 
     10 N          33.9340   16.7000   52.3180 N.am      5 SEP2        0.0000 
     11 N          31.5685   14.2775   54.6450 N.am      2 SEC2        0.0000 
     12 N          31.3050   15.3600   53.8710 N.am      8 SEL2        0.0000 
     13 N          31.5390   14.4550   52.8120 N.am      2 SEC2        0.0000 
     14 N          31.7730   13.5500   51.7530 N.am      5 SEP2        0.0000 
     15 N          32.6195   16.0300   53.0945 N.am      2 SEC2        0.0000 
     16 O          30.6205   15.0085   52.5365 O.2       1 ALC1        0.0000 
     17 O          31.3050   15.3600   53.8710 O.2       7 ALL1        0.0000 
     18 O          29.9360   14.6570   51.2020 O.2       4 ALP1        0.0000 
     19 O          29.4490   15.6165   52.0675 O.2       1 ALC1        0.0000 
     20 O          28.9620   16.5760   52.9330 O.2       7 ALL1        0.0000 
     21 CA         26.9825   14.9430   54.8230 C.3       3 GLC5        0.0000 
     22 CA         28.0010   15.6980   53.7440 C.3       9 GLL5        0.0000 
     23 CA         25.9640   14.1880   55.9020 C.3       6 GLP5        0.0000 
     24 CA         28.6285   18.9695   51.2645 C.3       3 GLC5        0.0000 
     25 CA         28.0970   17.4170   51.9660 C.3       9 GLL5        0.0000 
     26 CA         29.1600   20.5220   50.5630 C.3       6 GLP5        0.0000 
     27 CA         26.5060   16.5070   50.9895 C.3       3 GLC5        0.0000 
     28 CA         24.9150   15.5970   50.0130 C.3       6 GLP5        0.0000 
     29 CA         26.4950   18.3000   53.2175 C.3       3 GLC5        0.0000 
     30 CA         24.8930   19.1830   54.4690 C.3       6 GLP5        0.0000 
     31 CA         27.0835   18.8140   54.6305 C.3       3 GLC5        0.0000 
     32 CA         29.2740   18.4450   54.7920 C.3       9 GLL5        0.0000 
     33 CA         29.5875   20.0875   52.4635 C.3       3 GLC5        0.0000 
     34 CA         30.0150   19.6530   54.3640 C.3       9 GLL5        0.0000 
     35 CA         32.3980   21.3345   55.2945 C.3       3 GLC5        0.0000 
     36 CA         30.3720   22.0990   54.7820 C.3       9 GLL5        0.0000 
     37 CA         29.4750   21.4840   51.9840 C.3       3 GLC5        0.0000 
     38 CA         29.7900   22.4460   53.4050 C.3       9 GLL5        0.0000 
     39 CA         33.4735   23.1365   54.4960 C.3       3 GLC5        0.0000 
     40 CA         32.0710   24.6440   54.1800 C.3       9 GLL5        0.0000 
     41 CA         34.8760   21.6290   54.8120 C.3       6 GLP5        0.0000 
     42 CA         33.4380   24.9680   52.5380 C.3       3 GLC5        0.0000 
     43 CA         34.8050   25.2920   50.8960 C.3       6 GLP5        0.0000 
     44 CA         30.1600   23.7275   59.0245 C.3       3 GLC5        0.0000 
     45 CA         28.8450   24.3950   57.4000 C.3       9 GLL5        0.0000 
     46 CA         31.4750   23.0600   60.6490 C.3       6 GLP5        0.0000 
     47 N          27.5355   18.5940   59.5620 N.am      2 SEC2        0.0000 
     48 N          28.3450   19.2240   58.2580 N.am      8 SEL2        0.0000 
     49 N          26.7260   17.9640   60.8660 N.am      5 SEP2        0.0000 
     50 CA         32.8164   25.7544   55.3872 C.3       3 GLC5        0.0000 
     51 CA         30.8420   24.4910   55.4800 C.3       9 GLL5        0.0000 
     52 CA         34.6130   26.4290   55.2260 C.3       6 GLP5        0.0000 
     53 CA         30.8178   27.2645   56.6635 C.3       3 GLC5        0.0000 
     54 CA         30.5830   25.5920   56.2670 C.3       9 GLL5        0.0000 
     55 CA         31.5510   28.9600   56.5870 C.3       6 GLP5        0.0000 
     56 CA         29.1573   26.8615   55.7780 C.3       3 GLC5        0.0000 
     57 CA         28.2300   28.1540   54.8160 C.3       6 GLP5        0.0000 
@<TRIPOS>BOND
@<TRIPOS>SUBSTRUCTURE
     1 ALC1       16 GROUP        1 X    ALC  0     ROOT ALC X 1
     2 SEC2        6 GROUP        1 X    SEC  0     **** SEC X 2
     3 GLC5        1 GROUP        1 X    GLC  0     **** GLC X 6
     4 ALP1       18 GROUP        1 Y    ALP  0     ROOT ALP Y 8
     5 SEP2        8 GROUP        1 Y    SEP  0     **** SEP Y 9
     6 GLP5        3 GROUP        1 Y    GLP  0     **** GLP Y 13
     7 ALL1       17 GROUP        1 Z    ALL  0     ROOT ALL Z 15
     8 SEL2        7 GROUP        1 Z    SEL  0     **** SEL Z 16
     9 GLL5        2 GROUP        1 Z    GLL  0     **** GLL Z 20
@<TRIPOS>SET

