#    Name: 1bjy_CTC_1_ligand
#    Modification time : Mon Mar 24 19:36:11 2014

@<TRIPOS>MOLECULE
1bjy_CTC_1_ligand
   57    60     1     0     0
SMALL
NO_CHARGES


@<TRIPOS>ATOM
      1 C1         31.2200   17.9620   56.4320 C.2       1 CTC222      0.0000 
      2 O1         31.7140   18.0870   57.5770 O.2       1 CTC222      0.0000 
      3 C2         31.8440   17.0950   55.4970 C.2       1 CTC222      0.0000 
      4 C2'        33.1190   16.5170   55.7460 C.2       1 CTC222      0.0000 
      5 O2'        33.5040   15.5190   55.0830 O.2       1 CTC222      0.0000 
      6 N2'        33.9280   16.9290   56.7750 N.am      1 CTC222      0.0000 
      7 C3         31.0590   16.6240   54.4410 C.2       1 CTC222      0.0000 
      8 O3         31.3050   15.3600   53.8710 O.3       1 CTC222      0.0000 
      9 C4         29.8680   17.4090   53.8870 C.3       1 CTC222      0.0000 
     10 N4         28.9620   16.5760   52.9330 N.4       1 CTC222      0.0000 
     11 C4'        28.0010   15.6980   53.7440 C.3       1 CTC222      0.0000 
     12 C4D        28.0970   17.4170   51.9660 C.3       1 CTC222      0.0000 
     13 C4A        29.2740   18.4450   54.7920 C.3       1 CTC222      0.0000 
     14 C5         30.0150   19.6530   54.3640 C.3       1 CTC222      0.0000 
     15 C5A        29.5570   20.9070   55.0890 C.3       1 CTC222      0.0000 
     16 C6         30.3720   22.0990   54.7820 C.3       1 CTC222      0.0000 
     17 O6         31.7500   21.7000   54.8650 O.3       1 CTC222      0.0000 
     18 C6'        29.7900   22.4460   53.4050 C.3       1 CTC222      0.0000 
     19 C6A        30.1240   23.3020   55.6800 C.ar      1 CTC222      0.0000 
     20 C7         30.8420   24.4910   55.4800 C.ar      1 CTC222      0.0000 
     21 CL7        32.0710   24.6440   54.1800 Cl        1 CTC222      0.0000 
     22 C8         30.5830   25.5920   56.2670 C.ar      1 CTC222      0.0000 
     23 C9         29.5860   25.5460   57.2130 C.ar      1 CTC222      0.0000 
     24 C10        28.8450   24.3950   57.4000 C.ar      1 CTC222      0.0000 
     25 O10        27.5570   24.5410   58.0050 O.3       1 CTC222      0.0000 
     26 C6B        29.1590   23.2190   56.6860 C.ar      1 CTC222      0.0000 
     27 C11        28.8190   21.9440   57.2090 C.2       1 CTC222      0.0000 
     28 O11        27.9940   21.8750   58.1470 O.2       1 CTC222      0.0000 
     29 C5B        29.1940   20.7700   56.5290 C.2       1 CTC222      0.0000 
     30 C12        29.0410   19.4740   57.0330 C.2       1 CTC222      0.0000 
     31 O12        28.3450   19.2240   58.2580 O.3       1 CTC222      0.0000 
     32 C4B        29.6800   18.2530   56.2880 C.3       1 CTC222      0.0000 
     33 O4B        28.9860   17.0840   56.7060 O.3       1 CTC222      0.0000 
     34 H          34.7978   16.4451   56.8717 H         1 CTC222      0.0000 
     35 H          33.5771   17.6771   57.3382 H         1 CTC222      0.0000 
     36 H          30.4597   18.1134   53.0529 H         1 CTC222      0.0000 
     37 H          29.5867   15.9154   52.3435 H         1 CTC222      0.0000 
     38 H          28.2762   18.5599   54.6773 H         1 CTC222      0.0000 
     39 H          29.8887   19.8097   53.2798 H         1 CTC222      0.0000 
     40 H          31.0944   19.5184   54.5452 H         1 CTC222      0.0000 
     41 H          28.5159   21.1499   54.5609 H         1 CTC222      0.0000 
     42 H          31.1404   26.4544   56.1450 H         1 CTC222      0.0000 
     43 H          29.3862   26.3818   57.7931 H         1 CTC222      0.0000 
     44 H          28.4919   15.0575   54.3346 H         1 CTC222      0.0000 
     45 H          27.4070   16.2446   54.3342 H         1 CTC222      0.0000 
     46 H          27.4060   15.1540   53.1523 H         1 CTC222      0.0000 
     47 H          28.6582   17.9882   51.3670 H         1 CTC222      0.0000 
     48 H          27.5319   16.8402   51.3760 H         1 CTC222      0.0000 
     49 H          27.4776   18.0286   52.4582 H         1 CTC222      0.0000 
     50 H          30.0909   23.3464   53.0908 H         1 CTC222      0.0000 
     51 H          30.0665   21.7848   52.7076 H         1 CTC222      0.0000 
     52 H          28.7902   22.4587   53.4169 H         1 CTC222      0.0000 
     53 H          30.7992   15.3623   53.0084 H         1 CTC222      0.0000 
     54 H          32.3274   22.2774   55.4424 H         1 CTC222      0.0000 
     55 H          27.2892   23.6147   58.2700 H         1 CTC222      0.0000 
     56 H          28.0035   20.1178   58.5486 H         1 CTC222      0.0000 
     57 H          28.6489   17.2973   57.6230 H         1 CTC222      0.0000 
@<TRIPOS>BOND
     1    2    1 2    
     2    3    1 1    
     3   32    1 1    
     4    4    3 1    
     5    7    3 2    
     6    5    4 2    
     7    6    4 am   
     8   34    6 1    
     9   35    6 1    
    10    8    7 1    
    11    9    7 1    
    12   53    8 1    
    13   10    9 1    
    14   13    9 1    
    15   36    9 1    
    16   11   10 1    
    17   12   10 1    
    18   37   10 1    
    19   44   11 1    
    20   45   11 1    
    21   46   11 1    
    22   47   12 1    
    23   48   12 1    
    24   49   12 1    
    25   14   13 1    
    26   32   13 1    
    27   38   13 1    
    28   15   14 1    
    29   39   14 1    
    30   40   14 1    
    31   16   15 1    
    32   29   15 1    
    33   41   15 1    
    34   17   16 1    
    35   18   16 1    
    36   19   16 1    
    37   54   17 1    
    38   50   18 1    
    39   51   18 1    
    40   52   18 1    
    41   20   19 ar   
    42   26   19 ar   
    43   21   20 1    
    44   22   20 ar   
    45   23   22 ar   
    46   42   22 1    
    47   24   23 ar   
    48   43   23 1    
    49   25   24 1    
    50   26   24 ar   
    51   55   25 1    
    52   27   26 1    
    53   28   27 2    
    54   29   27 1    
    55   30   29 2    
    56   31   30 1    
    57   32   30 1    
    58   56   31 1    
    59   33   32 1    
    60   57   33 1    
@<TRIPOS>SUBSTRUCTURE
     1 CTC222      1 GROUP   
@<TRIPOS>SET

