#    Name: 1c7o_PPG_8_INTS_M
#    Modification time : Mon Mar 24 20:25:23 2014

@<TRIPOS>MOLECULE
1c7o_PPG_8_INTS_M
   83     0     9     0     0
SMALL
NO_CHARGES


@<TRIPOS>ATOM
      1 N          52.1405   65.2325  112.5160 N.am      1 SEC2        0.0000 
      2 N          51.0090   65.2020  111.8840 N.am      7 SEL2        0.0000 
      3 N          53.2720   65.2630  113.1480 N.am      4 SEP2        0.0000 
      4 CA         53.3605   67.1460  111.6585 C.3       3 GLC5        0.0000 
      5 CA         52.6700   65.7010  110.1480 C.3       9 GLL5        0.0000 
      6 CA         54.0510   68.5910  113.1690 C.3       6 GLP5        0.0000 
      7 CA         54.1825   65.9795  109.5495 C.3       3 GLC5        0.0000 
      8 CA         55.6950   66.2580  108.9510 C.3       6 GLP5        0.0000 
      9 N          50.6045   66.8120  107.5045 N.am      1 SEC2        0.0000 
     10 N          50.2360   65.6490  108.4370 N.am      7 SEL2        0.0000 
     11 N          50.9730   67.9750  106.5720 N.am      4 SEP2        0.0000 
     12 CA         46.5695   64.9380  107.4885 C.3       3 GLC5        0.0000 
     13 CA         47.4270   65.2380  109.4980 C.3       9 GLL5        0.0000 
     14 CA         45.7120   64.6380  105.4790 C.3       6 GLP5        0.0000 
     15 CA         47.8025   66.9475  110.2710 C.3       3 GLC5        0.0000 
     16 CA         48.1780   68.6570  111.0440 C.3       6 GLP5        0.0000 
     17 CA         50.6490   64.1575  114.1520 C.3       3 GLC5        0.0000 
     18 CA         49.8320   64.9710  112.5320 C.3       9 GLL5        0.0000 
     19 CA         51.4660   63.3440  115.7720 C.3       6 GLP5        0.0000 
     20 CA         50.5420   63.4090  111.6250 C.3       3 GLC5        0.0000 
     21 CA         51.2520   61.8470  110.7180 C.3       6 GLP5        0.0000 
     22 CA         47.7605   66.7005  111.8060 C.3       3 GLC5        0.0000 
     23 CA         47.3430   64.7440  112.5680 C.3       9 GLL5        0.0000 
     24 N          47.4520   65.0290  116.3710 N.am      1 SEC2        0.0000 
     25 N          46.1570   64.7120  115.6020 N.am      7 SEL2        0.0000 
     26 N          48.7470   65.3460  117.1400 N.am      4 SEP2        0.0000 
     27 N          47.3295   62.4320  116.3365 N.am      1 SEC2        0.0000 
     28 N          46.5500   62.2840  115.2990 N.am      7 SEL2        0.0000 
     29 N          48.1090   62.5800  117.3740 N.am      4 SEP2        0.0000 
     30 NZ         45.7570   62.7540  112.1075 N.4       2 LYC4        0.0000 
     31 NZ         45.0300   63.3990  113.8340 N.4       8 LYL4        0.0000 
     32 NZ         46.4840   62.1090  110.3810 N.4       5 LYP4        0.0000 
     33 N          44.7470   63.6715  112.4350 N.am      1 SEC2        0.0000 
     34 N          45.0300   63.3990  113.8340 N.am      7 SEL2        0.0000 
     35 N          44.4640   63.9440  111.0360 N.am      4 SEP2        0.0000 
     36 NZ         47.2060   68.0690  104.9805 N.4       2 LYC4        0.0000 
     37 NZ         47.8530   67.7320  106.3850 N.4       8 LYL4        0.0000 
     38 NZ         47.7880   68.7520  103.2280 N.4       5 LYP4        0.0000 
     39 N          49.4130   67.8535  106.4785 N.am      1 SEC2        0.0000 
     40 N          47.8530   67.7320  106.3850 N.am      7 SEL2        0.0000 
     41 N          48.2575   68.4295  105.2690 N.am      1 SEC2        0.0000 
     42 N          48.6620   69.1270  104.1530 N.am      4 SEP2        0.0000 
     43 N          47.2060   68.0690  104.9805 N.am      1 SEC2        0.0000 
     44 N          46.5590   68.4060  103.5760 N.am      4 SEP2        0.0000 
     45 NZ         46.1280   68.4490  104.8815 N.4       2 LYC4        0.0000 
     46 NZ         45.6970   68.4920  106.1870 N.4       8 LYL4        0.0000 
     47 N          44.6825   67.2065  105.6335 N.am      1 SEC2        0.0000 
     48 N          45.6970   68.4920  106.1870 N.am      7 SEL2        0.0000 
     49 N          43.6680   65.9210  105.0800 N.am      4 SEP2        0.0000 
     50 N          46.1280   68.4490  104.8815 N.am      1 SEC2        0.0000 
     51 CA         41.8515   67.7150  108.4930 C.3       3 GLC5        0.0000 
     52 CA         42.4740   68.6340  110.3190 C.3       9 GLL5        0.0000 
     53 CA         41.2290   66.7960  106.6670 C.3       6 GLP5        0.0000 
     54 CA         40.9960   66.5345  111.2395 C.3       3 GLC5        0.0000 
     55 CA         41.0890   68.4960  110.8440 C.3       9 GLL5        0.0000 
     56 CA         40.9030   64.5730  111.6350 C.3       6 GLP5        0.0000 
     57 CA         40.8105   68.0820  112.8035 C.3       3 GLC5        0.0000 
     58 CA         40.5320   67.6680  114.7630 C.3       6 GLP5        0.0000 
     59 CA         39.3700   68.5495  111.2320 C.3       3 GLC5        0.0000 
     60 CA         37.6510   68.6030  111.6200 C.3       6 GLP5        0.0000 
     61 CA         51.6067   67.4105  110.2980 C.3       3 GLC5        0.0000 
     62 CA         51.2050   65.4370  110.5330 C.3       9 GLL5        0.0000 
     63 CA         50.5730   68.8180  111.2080 C.3       6 GLP5        0.0000 
     64 CA         51.5947   63.7080  110.5292 C.3       3 GLC5        0.0000 
     65 CA         50.3050   63.5770  110.3757 C.3       3 GLC5        0.0000 
     66 CA         49.9950   65.4240  109.7220 C.3       9 GLL5        0.0000 
     67 CA         47.0315   63.6750  109.4547 C.3       3 GLC5        0.0000 
     68 CA         48.7210   65.1900  110.3450 C.3       9 GLL5        0.0000 
     69 CA         45.9890   62.1360  108.9880 C.3       6 GLP5        0.0000 
     70 CA         48.4078   62.9303  112.2440 C.3       3 GLC5        0.0000 
     71 CA         48.8030   61.0140  112.2910 C.3       6 GLP5        0.0000 
     72 CA         48.0525   66.1435  113.8048 C.3       3 GLC5        0.0000 
     73 CA         48.6820   64.9490  111.8260 C.3       9 GLL5        0.0000 
     74 CA         47.8050   67.4350  115.2360 C.3       6 GLP5        0.0000 
     75 CA         45.5957   65.7180  106.8508 C.3       3 GLC5        0.0000 
     76 CA         46.1680   66.9230  108.0450 C.3       9 GLL5        0.0000 
     77 CA         43.5392   65.6180  109.1562 C.3       3 GLC5        0.0000 
     78 CA         44.7910   66.6730  108.4000 C.3       9 GLL5        0.0000 
     79 CA         42.6320   64.0850  109.5180 C.3       6 GLP5        0.0000 
     80 CA         42.8377   66.9735  107.7308 C.3       3 GLC5        0.0000 
     81 CA         46.5139   68.1893  109.2269 C.3       3 GLC5        0.0000 
     82 CA         44.1020   67.6290  109.1890 C.3       9 GLL5        0.0000 
     83 CA         48.2370   69.1650  109.7480 C.3       6 GLP5        0.0000 
@<TRIPOS>BOND
@<TRIPOS>SUBSTRUCTURE
     1 SEC2        1 GROUP        1 X    SEC  0     ROOT SEC X 2
     2 LYC4       30 GROUP        1 X    LYC  0     **** LYC X 4
     3 GLC5        4 GROUP        1 X    GLC  0     **** GLC X 6
     4 SEP2        3 GROUP        1 Y    SEP  0     ROOT SEP Y 9
     5 LYP4       32 GROUP        1 Y    LYP  0     **** LYP Y 11
     6 GLP5        6 GROUP        1 Y    GLP  0     **** GLP Y 13
     7 SEL2        2 GROUP        1 Z    SEL  0     ROOT SEL Z 16
     8 LYL4       31 GROUP        1 Z    LYL  0     **** LYL Z 18
     9 GLL5        5 GROUP        1 Z    GLL  0     **** GLL Z 20
@<TRIPOS>SET

