#    Name: 1c7o_PPG_8_ligand
#    Modification time : Mon Mar 24 20:25:23 2014

@<TRIPOS>MOLECULE
1c7o_PPG_8_ligand
   45    45     1     0     0
SMALL
NO_CHARGES


@<TRIPOS>ATOM
      1 N1         51.0090   65.2020  111.8840 N.ar      1 PPG8500     0.0000 
      2 C2         51.2050   65.4370  110.5330 C.ar      1 PPG8500     0.0000 
      3 C2A        52.6700   65.7010  110.1480 C.3       1 PPG8500     0.0000 
      4 C3         49.9950   65.4240  109.7220 C.ar      1 PPG8500     0.0000 
      5 O3         50.2360   65.6490  108.4370 O.3       1 PPG8500     0.0000 
      6 C4         48.7210   65.1900  110.3450 C.ar      1 PPG8500     0.0000 
      7 C4A        47.4270   65.2380  109.4980 C.3       1 PPG8500     0.0000 
      8 C5         48.6820   64.9490  111.8260 C.ar      1 PPG8500     0.0000 
      9 C6         49.8320   64.9710  112.5320 C.ar      1 PPG8500     0.0000 
     10 C5A        47.3430   64.7440  112.5680 C.3       1 PPG8500     0.0000 
     11 OP4        47.4220   63.7880  113.6410 O.3       1 PPG8500     0.0000 
     12 P          46.1990   63.6060  114.6530 P.3       1 PPG8500     0.0000 
     13 OP1        46.1570   64.7120  115.6020 O.co2     1 PPG8500     0.0000 
     14 OP2        46.5500   62.2840  115.2990 O.co2     1 PPG8500     0.0000 
     15 OP3        45.0300   63.3990  113.8340 O.co2     1 PPG8500     0.0000 
     16 N4A        47.2570   66.5650  108.9410 N.3       1 PPG8500     0.0000 
     17 CAI        46.1680   66.9230  108.0450 C.3       1 PPG8500     0.0000 
     18 CBC        46.5510   67.7500  106.8340 C.2       1 PPG8500     0.0000 
     19 O2B        47.8530   67.7320  106.3850 O.co2     1 PPG8500     0.0000 
     20 O3B        45.6970   68.4920  106.1870 O.co2     1 PPG8500     0.0000 
     21 CBI        44.7910   66.6730  108.4000 C.2       1 PPG8500     0.0000 
     22 CGI        44.1020   67.6290  109.1890 C.2       1 PPG8500     0.0000 
     23 OET        42.8020   67.4140  109.6390 O.3       1 PPG8500     0.0000 
     24 CEI        42.4740   68.6340  110.3190 C.3       1 PPG8500     0.0000 
     25 CFI        41.0890   68.4960  110.8440 C.3       1 PPG8500     0.0000 
     26 NI         40.2300   68.3090  109.6810 N.4       1 PPG8500     0.0000 
     27 H          46.5949   64.9666  110.1499 H         1 PPG8500     0.0000 
     28 H          47.5158   64.4825  108.7155 H         1 PPG8500     0.0000 
     29 H          49.8270   64.8148  113.5552 H         1 PPG8500     0.0000 
     30 H          46.5930   64.4383  111.8104 H         1 PPG8500     0.0000 
     31 H          47.0184   65.7381  112.9371 H         1 PPG8500     0.0000 
     32 H          46.2928   65.7337  107.3241 H         1 PPG8500     0.0000 
     33 H          44.3376   65.8301  108.0868 H         1 PPG8500     0.0000 
     34 H          44.5905   68.5112  109.4323 H         1 PPG8500     0.0000 
     35 H          42.5145   69.4869  109.6409 H         1 PPG8500     0.0000 
     36 H          43.1539   68.8168  111.1516 H         1 PPG8500     0.0000 
     37 H          40.8149   69.3933  111.3834 H         1 PPG8500     0.0000 
     38 H          41.0349   67.6391  111.5029 H         1 PPG8500     0.0000 
     39 H          53.0408   66.4991  110.6229 H         1 PPG8500     0.0000 
     40 H          53.2591   64.9253  110.3745 H         1 PPG8500     0.0000 
     41 H          52.7717   65.8698  109.1676 H         1 PPG8500     0.0000 
     42 H          40.2825   69.0846  109.0520 H         1 PPG8500     0.0000 
     43 H          40.4813   67.4925  109.1611 H         1 PPG8500     0.0000 
     44 H          39.2698   68.2069  109.9411 H         1 PPG8500     0.0000 
     45 H          49.4924   66.2455  108.1349 H         1 PPG8500     0.0000 
@<TRIPOS>BOND
     1    2    1 ar   
     2    9    1 ar   
     3    3    2 1    
     4    4    2 ar   
     5   39    3 1    
     6   40    3 1    
     7   41    3 1    
     8    5    4 1    
     9    6    4 ar   
    10   45    5 1    
    11    7    6 1    
    12    8    6 ar   
    13   16    7 1    
    14   27    7 1    
    15   28    7 1    
    16    9    8 ar   
    17   10    8 1    
    18   29    9 1    
    19   11   10 1    
    20   30   10 1    
    21   31   10 1    
    22   12   11 1    
    23   13   12 ar   
    24   14   12 ar   
    25   15   12 ar   
    26   17   16 1    
    27   18   17 1    
    28   21   17 1    
    29   32   17 1    
    30   19   18 ar   
    31   20   18 ar   
    32   22   21 2    
    33   33   21 1    
    34   23   22 1    
    35   34   22 1    
    36   24   23 1    
    37   25   24 1    
    38   35   24 1    
    39   36   24 1    
    40   26   25 1    
    41   37   25 1    
    42   38   25 1    
    43   42   26 1    
    44   43   26 1    
    45   44   26 1    
@<TRIPOS>SUBSTRUCTURE
     1 PPG8500     1 GROUP   
@<TRIPOS>SET

