#    Name: 2q4w_FAD_1_INTS_M
#    Modification time : Mon Mar 24 20:44:44 2014

@<TRIPOS>MOLECULE
2q4w_FAD_1_INTS_M
   94     0     9     0     0
SMALL
NO_CHARGES


@<TRIPOS>ATOM
      1 N          33.3405   11.2975  159.9740 N.am      2 SEC2        0.0000 
      2 N          33.6820    9.7900  160.1860 N.am      8 SEL2        0.0000 
      3 N          32.9990   12.8050  159.7620 N.am      5 SEP2        0.0000 
      4 N          31.9190    6.3665  160.6060 N.am      2 SEC2        0.0000 
      5 N          33.0450    7.4540  160.0180 N.am      8 SEL2        0.0000 
      6 N          30.7930    5.2790  161.1940 N.am      5 SEP2        0.0000 
      7 CA         36.1290    6.8155  162.5970 C.3       3 GLC5        0.0000 
      8 CA         36.4570    7.3490  160.8130 C.3       9 GLL5        0.0000 
      9 CA         35.8010    6.2820  164.3810 C.3       6 GLP5        0.0000 
     10 CA         38.5100    5.7370  161.0875 C.3       3 GLC5        0.0000 
     11 CA         37.1910    6.6970  159.5850 C.3       9 GLL5        0.0000 
     12 CA         39.8290    4.7770  162.5900 C.3       6 GLP5        0.0000 
     13 CA         37.0295    7.7150  156.8480 C.3       3 GLC5        0.0000 
     14 CA         36.4370    6.5140  158.2310 C.3       9 GLL5        0.0000 
     15 CA         37.6220    8.9160  155.4650 C.3       6 GLP5        0.0000 
     16 N          38.6100    6.8850  157.0185 N.am      2 SEC2        0.0000 
     17 N          37.3400    6.2050  157.1570 N.am      8 SEL2        0.0000 
     18 N          39.8800    7.5650  156.8800 N.am      5 SEP2        0.0000 
     19 O          36.9075    6.2120  155.8080 O.2       1 ALC1        0.0000 
     20 O          37.3400    6.2050  157.1570 O.2       7 ALL1        0.0000 
     21 O          36.4750    6.2190  154.4590 O.2       4 ALP1        0.0000 
     22 O          36.2080    3.8255  156.6135 O.2       1 ALC1        0.0000 
     23 O          35.0940    4.6560  157.3240 O.2       7 ALL1        0.0000 
     24 O          37.3220    2.9950  155.9030 O.2       4 ALP1        0.0000 
     25 CA         33.3350    0.6555  162.6500 C.3       3 GLC5        0.0000 
     26 CA         35.3680    1.2930  162.8570 C.3       9 GLL5        0.0000 
     27 CA         31.3020    0.0180  162.4430 C.3       6 GLP5        0.0000 
     28 CA         35.1010   -0.6600  162.2560 C.3       3 GLC5        0.0000 
     29 CA         34.8340   -2.6130  161.6550 C.3       6 GLP5        0.0000 
     30 O          34.8835   -0.2540  164.8405 O.2       1 ALC1        0.0000 
     31 O          34.5170    0.9040  163.8040 O.2       7 ALL1        0.0000 
     32 O          35.2500   -1.4120  165.8770 O.2       4 ALP1        0.0000 
     33 N          36.8995   -0.7010  163.1470 N.am      2 SEC2        0.0000 
     34 N          36.5120    0.5920  162.6200 N.am      8 SEL2        0.0000 
     35 N          37.2870   -1.9940  163.6740 N.am      5 SEP2        0.0000 
     36 CA         35.4685    0.8010  160.4750 C.3       3 GLC5        0.0000 
     37 CA         37.3630    1.0140  161.6410 C.3       9 GLL5        0.0000 
     38 CA         33.5740    0.5880  159.3090 C.3       6 GLP5        0.0000 
     39 CA         38.8250    1.6340  160.1550 C.3       3 GLC5        0.0000 
     40 CA         40.2870    2.2540  158.6690 C.3       6 GLP5        0.0000 
     41 CA         37.3380   -0.8250  161.4845 C.3       3 GLC5        0.0000 
     42 CA         37.3130   -2.6640  161.3280 C.3       6 GLP5        0.0000 
     43 N          40.5795   13.5120  168.6935 N.am      2 SEC2        0.0000 
     44 N          39.3230   13.8110  167.5320 N.am      8 SEL2        0.0000 
     45 N          41.8360   13.2130  169.8550 N.am      5 SEP2        0.0000 
     46 O          39.4655   15.5890  169.5415 O.2       1 ALC1        0.0000 
     47 O          38.3320   15.5590  168.4720 O.2       7 ALL1        0.0000 
     48 O          40.5990   15.6190  170.6110 O.2       4 ALP1        0.0000 
     49 N          37.0510   16.9830  170.5930 N.am      2 SEC2        0.0000 
     50 N          37.3420   17.3500  169.4540 N.am      8 SEL2        0.0000 
     51 N          36.7600   16.6160  171.7320 N.am      5 SEP2        0.0000 
     52 CA         31.1780   20.1000  163.2685 C.3       3 GLC5        0.0000 
     53 CA         32.6400   20.5260  164.6520 C.3       9 GLL5        0.0000 
     54 CA         29.7160   19.6740  161.8850 C.3       6 GLP5        0.0000 
     55 CA         33.3595   21.5075  163.9615 C.3       3 GLC5        0.0000 
     56 CA         34.0790   22.4890  163.2710 C.3       6 GLP5        0.0000 
     57 CA         31.5770   18.7130  161.6385 C.3       3 GLC5        0.0000 
     58 CA         32.9900   18.7480  162.2800 C.3       9 GLL5        0.0000 
     59 CA         30.1640   18.6780  160.9970 C.3       6 GLP5        0.0000 
     60 CA         33.6680   18.4340  160.3920 C.3       3 GLC5        0.0000 
     61 CA         34.3460   18.1200  158.5040 C.3       6 GLP5        0.0000 
     62 CA         33.7085   20.5130  162.1190 C.3       3 GLC5        0.0000 
     63 CA         34.4270   22.2780  161.9580 C.3       6 GLP5        0.0000 
     64 CA         38.0265   15.2745  162.7540 C.3       3 GLC5        0.0000 
     65 CA         36.5750   15.1810  163.8180 C.3       9 GLL5        0.0000 
     66 CA         39.4780   15.3680  161.6900 C.3       6 GLP5        0.0000 
     67 N          32.3805    8.2570  165.9015 N.am      2 SEC2        0.0000 
     68 N          32.7790    8.4650  164.6210 N.am      8 SEL2        0.0000 
     69 N          31.9820    8.0490  167.1820 N.am      5 SEP2        0.0000 
     70 N          32.7535    7.1135  165.0245 N.am      2 SEC2        0.0000 
     71 N          32.7280    5.7620  165.4280 N.am      5 SEP2        0.0000 
     72 N          30.6590    8.6675  162.8890 N.am      2 SEC2        0.0000 
     73 N          31.6050    9.6580  162.8130 N.am      8 SEL2        0.0000 
     74 N          29.7130    7.6770  162.9650 N.am      5 SEP2        0.0000 
     75 N          31.0925   10.8335  161.9670 N.am      2 SEC2        0.0000 
     76 N          30.5800   12.0090  161.1210 N.am      5 SEP2        0.0000 
     77 CA         34.4775    6.3552  157.5390 C.3       3 GLC5        0.0000 
     78 CA         32.9750    6.7740  156.7340 C.3       6 GLP5        0.0000 
     79 CA         35.6105    2.4455  164.3783 C.3       3 GLC5        0.0000 
     80 CA         35.1080    2.4490  162.0560 C.3       9 GLL5        0.0000 
     81 CA         35.9830    3.0200  166.3000 C.3       6 GLP5        0.0000 
     82 CA         34.6067    1.4512  160.5466 C.3       3 GLC5        0.0000 
     83 CA         33.6912   17.5475  167.4205 C.3       3 GLC5        0.0000 
     84 CA         35.2250   18.1030  165.9530 C.3       9 GLL5        0.0000 
     85 CA         32.6180   16.4550  168.9500 C.3       6 GLP5        0.0000 
     86 CA         33.6153   13.4875  163.2552 C.3       3 GLC5        0.0000 
     87 CA         35.6450   14.0920  164.1380 C.3       9 GLL5        0.0000 
     88 CA         31.6550   13.4470  162.8540 C.3       6 GLP5        0.0000 
     89 CA         34.0048   13.3205  164.9083 C.3       3 GLC5        0.0000 
     90 CA         35.5060   12.9640  163.1750 C.3       9 GLL5        0.0000 
     91 CA         32.4340   13.1130  166.1600 C.3       6 GLP5        0.0000 
     92 CA         33.0763   12.4745  163.1298 C.3       3 GLC5        0.0000 
     93 CA         34.5790   12.0620  163.8440 C.3       9 GLL5        0.0000 
     94 CA         33.4657   12.3075  164.7828 C.3       3 GLC5        0.0000 
@<TRIPOS>BOND
@<TRIPOS>SUBSTRUCTURE
     1 ALC1       19 GROUP        1 X    ALC  0     ROOT ALC X 1
     2 SEC2        1 GROUP        1 X    SEC  0     **** SEC X 2
     3 GLC5        7 GROUP        1 X    GLC  0     **** GLC X 6
     4 ALP1       21 GROUP        1 Y    ALP  0     ROOT ALP Y 8
     5 SEP2        3 GROUP        1 Y    SEP  0     **** SEP Y 9
     6 GLP5        9 GROUP        1 Y    GLP  0     **** GLP Y 13
     7 ALL1       20 GROUP        1 Z    ALL  0     ROOT ALL Z 15
     8 SEL2        2 GROUP        1 Z    SEL  0     **** SEL Z 16
     9 GLL5        8 GROUP        1 Z    GLL  0     **** GLL Z 20
@<TRIPOS>SET

