#    Name: 2q4w_FAD_1_ligand
#    Modification time : Mon Mar 24 20:44:44 2014

@<TRIPOS>MOLECULE
2q4w_FAD_1_ligand
   84    89     1     0     0
SMALL
NO_CHARGES


@<TRIPOS>ATOM
      1 PA         33.8980    8.4460  160.6880 P.3       1 FAD701      0.0000 
      2 O1A        33.6820    9.7900  160.1860 O.co2     1 FAD701      0.0000 
      3 O2A        33.0450    7.4540  160.0180 O.co2     1 FAD701      0.0000 
      4 O5B        35.5410    8.3380  160.4820 O.3       1 FAD701      0.0000 
      5 C5B        36.4570    7.3490  160.8130 C.3       1 FAD701      0.0000 
      6 C4B        37.1910    6.6970  159.5850 C.3       1 FAD701      0.0000 
      7 O4B        37.1660    5.4500  160.1810 O.3       1 FAD701      0.0000 
      8 C3B        36.4370    6.5140  158.2310 C.3       1 FAD701      0.0000 
      9 O3B        37.3400    6.2050  157.1570 O.3       1 FAD701      0.0000 
     10 C2B        35.5230    5.3590  158.4570 C.3       1 FAD701      0.0000 
     11 O2B        35.0940    4.6560  157.3240 O.3       1 FAD701      0.0000 
     12 C1B        36.3580    4.5240  159.4350 C.3       1 FAD701      0.0000 
     13 N9A        35.6300    3.8710  160.4760 N.pl3     1 FAD701      0.0000 
     14 C8A        34.4080    4.1990  161.0740 C.2       1 FAD701      0.0000 
     15 N7A        34.0420    3.3500  162.0600 N.2       1 FAD701      0.0000 
     16 C5A        35.1080    2.4490  162.0560 C.ar      1 FAD701      0.0000 
     17 C6A        35.3680    1.2930  162.8570 C.ar      1 FAD701      0.0000 
     18 N6A        34.5170    0.9040  163.8040 N.pl3     1 FAD701      0.0000 
     19 N1A        36.5120    0.5920  162.6200 N.ar      1 FAD701      0.0000 
     20 C2A        37.3630    1.0140  161.6410 C.ar      1 FAD701      0.0000 
     21 N3A        37.2340    2.0640  160.8370 N.ar      1 FAD701      0.0000 
     22 C4A        36.0410    2.7580  161.1120 C.ar      1 FAD701      0.0000 
     23 N1         37.8880   14.8850  166.2850 N.2       1 FAD701      0.0000 
     24 C2         38.5340   14.7010  167.4050 C.2       1 FAD701      0.0000 
     25 O2         39.3230   13.8110  167.5320 O.2       1 FAD701      0.0000 
     26 N3         38.3320   15.5590  168.4720 N.am      1 FAD701      0.0000 
     27 C4         37.4560   16.6570  168.4540 C.2       1 FAD701      0.0000 
     28 O4         37.3420   17.3500  169.4540 O.2       1 FAD701      0.0000 
     29 C4X        36.7770   16.8480  167.2460 C.2       1 FAD701      0.0000 
     30 N5         35.8800   17.9160  167.1220 N.2       1 FAD701      0.0000 
     31 C5X        35.2250   18.1030  165.9530 C.ar      1 FAD701      0.0000 
     32 C6         34.3040   19.1770  165.8290 C.ar      1 FAD701      0.0000 
     33 C7         33.6010   19.3850  164.6730 C.ar      1 FAD701      0.0000 
     34 C7M        32.6400   20.5260  164.6520 C.3       1 FAD701      0.0000 
     35 C8         33.7610   18.5550  163.5680 C.ar      1 FAD701      0.0000 
     36 C8M        32.9900   18.7480  162.2800 C.3       1 FAD701      0.0000 
     37 C9         34.7070   17.4530  163.6530 C.ar      1 FAD701      0.0000 
     38 C9A        35.4280   17.2130  164.8100 C.ar      1 FAD701      0.0000 
     39 N10        36.3630   16.1170  164.9560 N.pl3     1 FAD701      0.0000 
     40 C10        37.0200   15.9450  166.1790 C.2       1 FAD701      0.0000 
     41 C1'        36.5750   15.1810  163.8180 C.3       1 FAD701      0.0000 
     42 C2'        35.6450   14.0920  164.1380 C.3       1 FAD701      0.0000 
     43 O2'        36.2020   13.5230  165.3150 O.3       1 FAD701      0.0000 
     44 C3'        35.5060   12.9640  163.1750 C.3       1 FAD701      0.0000 
     45 O3'        35.0130   13.2430  161.8960 O.3       1 FAD701      0.0000 
     46 C4'        34.5790   12.0620  163.8440 C.3       1 FAD701      0.0000 
     47 O4'        34.9130   11.6780  165.2220 O.3       1 FAD701      0.0000 
     48 C5'        34.4160   10.9420  162.9670 C.3       1 FAD701      0.0000 
     49 O5'        33.8870   10.1670  163.7110 O.3       1 FAD701      0.0000 
     50 P          32.8530    9.1120  163.3600 P.3       1 FAD701      0.0000 
     51 O1P        32.7790    8.4650  164.6210 O.co2     1 FAD701      0.0000 
     52 O2P        31.6050    9.6580  162.8130 O.co2     1 FAD701      0.0000 
     53 O3P        33.5000    8.2290  162.2240 O.3       1 FAD701      0.0000 
     54 H          35.9924    6.4978  161.3702 H         1 FAD701      0.0000 
     55 H          37.2704    7.7199  161.4852 H         1 FAD701      0.0000 
     56 H          38.1294    7.0663  159.5009 H         1 FAD701      0.0000 
     57 H          35.8639    7.3883  158.0587 H         1 FAD701      0.0000 
     58 H          34.6858    5.7427  159.0687 H         1 FAD701      0.0000 
     59 H          36.9840    3.8586  158.9022 H         1 FAD701      0.0000 
     60 H          33.8796    4.9846  160.7842 H         1 FAD701      0.0000 
     61 H          33.7131    1.4834  163.9382 H         1 FAD701      0.0000 
     62 H          34.7584    0.0674  164.2958 H         1 FAD701      0.0000 
     63 H          38.2655    0.3993  161.5109 H         1 FAD701      0.0000 
     64 H          38.8704   15.3829  169.3663 H         1 FAD701      0.0000 
     65 H          34.1770   19.8052  166.6447 H         1 FAD701      0.0000 
     66 H          34.8204   16.8587  162.8218 H         1 FAD701      0.0000 
     67 H          37.5816   14.8321  163.8161 H         1 FAD701      0.0000 
     68 H          36.3050   15.6539  162.9024 H         1 FAD701      0.0000 
     69 H          34.6730   14.4919  164.3834 H         1 FAD701      0.0000 
     70 H          36.4717   12.4401  163.1377 H         1 FAD701      0.0000 
     71 H          33.5795   12.5933  163.8666 H         1 FAD701      0.0000 
     72 H          35.4175   10.6748  162.5892 H         1 FAD701      0.0000 
     73 H          33.8291   11.2892  162.0998 H         1 FAD701      0.0000 
     74 H          33.0967   21.3994  164.8211 H         1 FAD701      0.0000 
     75 H          32.1755   20.6041  163.7699 H         1 FAD701      0.0000 
     76 H          31.9301   20.4266  165.3493 H         1 FAD701      0.0000 
     77 H          33.1698   19.6422  161.8700 H         1 FAD701      0.0000 
     78 H          33.2301   18.0586  161.5966 H         1 FAD701      0.0000 
     79 H          32.0026   18.6853  162.4253 H         1 FAD701      0.0000 
     80 H          36.7821    6.2517  156.3284 H         1 FAD701      0.0000 
     81 H          35.8832    4.1092  157.0447 H         1 FAD701      0.0000 
     82 H          37.1339   13.8830  165.3604 H         1 FAD701      0.0000 
     83 H          35.5703   14.0042  161.5643 H         1 FAD701      0.0000 
     84 H          35.8130   12.0796  165.3915 H         1 FAD701      0.0000 
@<TRIPOS>BOND
     1    2    1 ar   
     2    3    1 ar   
     3    4    1 1    
     4   53    1 1    
     5    5    4 1    
     6    6    5 1    
     7   54    5 1    
     8   55    5 1    
     9    7    6 1    
    10    8    6 1    
    11   56    6 1    
    12   12    7 1    
    13    9    8 1    
    14   10    8 1    
    15   57    8 1    
    16   80    9 1    
    17   11   10 1    
    18   12   10 1    
    19   58   10 1    
    20   81   11 1    
    21   13   12 1    
    22   59   12 1    
    23   14   13 1    
    24   22   13 1    
    25   15   14 2    
    26   60   14 1    
    27   16   15 1    
    28   17   16 ar   
    29   22   16 ar   
    30   18   17 1    
    31   19   17 ar   
    32   61   18 1    
    33   62   18 1    
    34   20   19 ar   
    35   21   20 ar   
    36   63   20 1    
    37   22   21 ar   
    38   24   23 1    
    39   40   23 2    
    40   25   24 2    
    41   26   24 am   
    42   27   26 am   
    43   64   26 1    
    44   28   27 2    
    45   29   27 1    
    46   30   29 2    
    47   40   29 1    
    48   31   30 1    
    49   32   31 ar   
    50   38   31 ar   
    51   33   32 ar   
    52   65   32 1    
    53   34   33 1    
    54   35   33 ar   
    55   74   34 1    
    56   75   34 1    
    57   76   34 1    
    58   36   35 1    
    59   37   35 ar   
    60   77   36 1    
    61   78   36 1    
    62   79   36 1    
    63   38   37 ar   
    64   66   37 1    
    65   39   38 1    
    66   40   39 1    
    67   41   39 1    
    68   42   41 1    
    69   67   41 1    
    70   68   41 1    
    71   43   42 1    
    72   44   42 1    
    73   69   42 1    
    74   82   43 1    
    75   45   44 1    
    76   46   44 1    
    77   70   44 1    
    78   83   45 1    
    79   47   46 1    
    80   48   46 1    
    81   71   46 1    
    82   84   47 1    
    83   49   48 1    
    84   72   48 1    
    85   73   48 1    
    86   50   49 1    
    87   51   50 ar   
    88   52   50 ar   
    89   53   50 1    
@<TRIPOS>SUBSTRUCTURE
     1 FAD701      1 GROUP   
@<TRIPOS>SET

