#    Name: 2ilu_NDP_1_INTS_M
#    Modification time : Tue Mar 25 18:21:03 2014

@<TRIPOS>MOLECULE
2ilu_NDP_1_INTS_M
   81     0    12     0     0
SMALL
NO_CHARGES


@<TRIPOS>ATOM
      1 N          31.0870   29.8325   62.3405 N.am      2 SEC2        0.0000 
      2 N          31.0960   28.5140   62.8720 N.am     10 SEL2        0.0000 
      3 N          31.0780   31.1510   61.8090 N.am      6 SEP2        0.0000 
      4 N          30.0445   28.7165   62.2400 N.am      2 SEC2        0.0000 
      5 N          28.9930   28.9190   61.6080 N.am      6 SEP2        0.0000 
      6 CA         37.3330   26.3960   66.7935 C.3       4 GLC5        0.0000 
      7 CA         35.2530   26.9490   66.7670 C.3      12 GLL5        0.0000 
      8 CA         39.4130   25.8430   66.8200 C.3       8 GLP5        0.0000 
      9 N          36.2815   26.3260   68.9515 N.am      2 SEC2        0.0000 
     10 N          35.9150   27.3700   67.9670 N.am     10 SEL2        0.0000 
     11 N          36.6480   25.2820   69.9360 N.am      6 SEP2        0.0000 
     12 O          36.7505   28.0960   67.4010 O.2       1 ALC1        0.0000 
     13 O          35.9150   27.3700   67.9670 O.2       9 ALL1        0.0000 
     14 O          37.5860   28.8220   66.8350 O.2       5 ALP1        0.0000 
     15 CA         28.9270   23.9895   70.1095 C.3       4 GLC5        0.0000 
     16 CA         28.5500   25.9600   69.1110 C.3      12 GLL5        0.0000 
     17 CA         29.3040   22.0190   71.1080 C.3       8 GLP5        0.0000 
     18 CA         26.5750   26.8000   68.9130 C.3       4 GLC5        0.0000 
     19 CA         24.6000   27.6400   68.7150 C.3       8 GLP5        0.0000 
     20 N          27.6350   26.6710   71.1590 N.am      2 SEC2        0.0000 
     21 N          28.6880   26.6380   70.2960 N.am     10 SEL2        0.0000 
     22 N          26.5820   26.7040   72.0220 N.am      6 SEP2        0.0000 
     23 CA         31.0720   28.8010   71.4300 C.3       4 GLC5        0.0000 
     24 CA         29.8190   27.2970   70.6290 C.3      12 GLL5        0.0000 
     25 CA         32.3250   30.3050   72.2310 C.3       8 GLP5        0.0000 
     26 CA         31.1120   25.6305   70.3605 C.3       4 GLC5        0.0000 
     27 CA         32.4050   23.9640   70.0920 C.3       8 GLP5        0.0000 
     28 CA         31.0495   26.7780   72.0215 C.3       4 GLC5        0.0000 
     29 CA         32.2800   26.2590   73.4140 C.3       8 GLP5        0.0000 
     30 CA         29.2935   26.6660   72.7175 C.3       4 GLC5        0.0000 
     31 CA         28.7680   26.0350   74.8060 C.3       8 GLP5        0.0000 
     32 CA         29.2185   28.8955   70.4485 C.3       4 GLC5        0.0000 
     33 CA         28.6180   30.4940   70.2680 C.3       8 GLP5        0.0000 
     34 CA         32.5145   27.9910   69.3615 C.3       4 GLC5        0.0000 
     35 CA         30.8280   26.6980   68.6630 C.3      12 GLL5        0.0000 
     36 CA         34.2010   29.2840   70.0600 C.3       8 GLP5        0.0000 
     37 CA         30.3765   28.8090   69.1685 C.3       4 GLC5        0.0000 
     38 CA         29.9250   30.9200   69.6740 C.3       8 GLP5        0.0000 
     39 N          32.2530   29.8970   61.8720 N.am      2 SEC2        0.0000 
     40 N          33.4280   28.6430   61.9350 N.am     10 SEL2        0.0000 
     41 N          35.6525   27.2075   59.4580 N.am      2 SEC2        0.0000 
     42 N          34.2180   27.7960   59.6280 N.am     10 SEL2        0.0000 
     43 N          37.0870   26.6190   59.2880 N.am      6 SEP2        0.0000 
     44 CA         35.8995   25.8505   59.8230 C.3       4 GLC5        0.0000 
     45 CA         33.9080   25.3940   59.2900 C.3      12 GLL5        0.0000 
     46 CA         37.8910   26.3070   60.3560 C.3       8 GLP5        0.0000 
     47 N          36.3110   22.1785   58.2300 N.am      2 SEC2        0.0000 
     48 N          35.2870   22.9560   58.1400 N.am     10 SEL2        0.0000 
     49 N          37.3350   21.4010   58.3200 N.am      6 SEP2        0.0000 
     50 O          35.7715   21.8115   57.3105 O.2       1 ALC1        0.0000 
     51 O          35.2870   22.9560   58.1400 O.2       9 ALL1        0.0000 
     52 O          36.2560   20.6670   56.4810 O.2       5 ALP1        0.0000 
     53 CA         35.1285   22.7945   60.9945 C.3       4 GLC5        0.0000 
     54 CA         33.5780   23.1460   59.9360 C.3      12 GLL5        0.0000 
     55 CA         36.6790   22.4430   62.0530 C.3       8 GLP5        0.0000 
     56 NZ         36.5060   24.6595   68.1840 N.4       3 LYC4        0.0000 
     57 NZ         36.3640   24.0370   66.4320 N.4      11 LYL4        0.0000 
     58 NZ         36.6480   25.2820   69.9360 N.4       7 LYP4        0.0000 
     59 N          37.6830   23.7515   66.6505 N.am      2 SEC2        0.0000 
     60 N          36.3640   24.0370   66.4320 N.am     10 SEL2        0.0000 
     61 N          39.0020   23.4660   66.8690 N.am      6 SEP2        0.0000 
     62 NZ         35.7875   23.8940   68.8975 N.4       3 LYC4        0.0000 
     63 NZ         34.9270   22.5060   67.8590 N.4      11 LYL4        0.0000 
     64 N          34.1030   22.6685   68.8510 N.am      2 SEC2        0.0000 
     65 N          34.9270   22.5060   67.8590 N.am     10 SEL2        0.0000 
     66 N          33.2790   22.8310   69.8430 N.am      6 SEP2        0.0000 
     67 CA         36.2647   28.5314   65.0822 C.3       4 GLC5        0.0000 
     68 CA         34.5670   28.1030   66.1160 C.3      12 GLL5        0.0000 
     69 CA         37.6840   29.6250   64.0880 C.3       8 GLP5        0.0000 
     70 CA         33.0040   25.2542   68.7138 C.3       4 GLC5        0.0000 
     71 CA         33.1240   27.0290   67.6610 C.3      12 GLL5        0.0000 
     72 CA         34.7919   26.2379   69.1284 C.3       4 GLC5        0.0000 
     73 CA         35.6880   25.7090   70.9820 C.3       8 GLP5        0.0000 
     74 CA         29.6780   27.5943   66.9228 C.3       4 GLC5        0.0000 
     75 CA         29.6820   25.9830   68.2400 C.3      12 GLL5        0.0000 
     76 CA         29.1010   28.8480   65.3940 C.3       8 GLP5        0.0000 
     77 CA         31.1885   25.1494   69.3806 C.3       4 GLC5        0.0000 
     78 CA         32.8054   26.0983   57.1756 C.3       4 GLC5        0.0000 
     79 CA         33.2370   26.7340   59.4670 C.3      12 GLL5        0.0000 
     80 CA         32.0580   26.8660   55.6480 C.3       8 GLP5        0.0000 
     81 CA         34.2288   28.1596   68.4742 C.3       4 GLC5        0.0000 
@<TRIPOS>BOND
@<TRIPOS>SUBSTRUCTURE
     1 ALC1       12 GROUP        1 X    ALC  0     ROOT ALC X 1
     2 SEC2        1 GROUP        1 X    SEC  0     **** SEC X 2
     3 LYC4       56 GROUP        1 X    LYC  0     **** LYC X 4
     4 GLC5        6 GROUP        1 X    GLC  0     **** GLC X 6
     5 ALP1       14 GROUP        1 Y    ALP  0     ROOT ALP Y 8
     6 SEP2        3 GROUP        1 Y    SEP  0     **** SEP Y 9
     7 LYP4       58 GROUP        1 Y    LYP  0     **** LYP Y 11
     8 GLP5        8 GROUP        1 Y    GLP  0     **** GLP Y 13
     9 ALL1       13 GROUP        1 Z    ALL  0     ROOT ALL Z 15
    10 SEL2        2 GROUP        1 Z    SEL  0     **** SEL Z 16
    11 LYL4       57 GROUP        1 Z    LYL  0     **** LYL Z 18
    12 GLL5        7 GROUP        1 Z    GLL  0     **** GLL Z 20
@<TRIPOS>SET

