#    Name: 2ilu_NDP_1_ligand
#    Modification time : Tue Mar 25 18:21:03 2014

@<TRIPOS>MOLECULE
2ilu_NDP_1_ligand
   74    78     1     0     0
SMALL
NO_CHARGES


@<TRIPOS>ATOM
      1 PA         32.4140   27.8450   62.9050 P.3       1 NDP482      0.0000 
      2 O1A        31.0960   28.5140   62.8720 O.co2     1 NDP482      0.0000 
      3 O2A        32.4880   26.4040   62.6200 O.co2     1 NDP482      0.0000 
      4 O5B        32.9900   28.1950   64.3150 O.3       1 NDP482      0.0000 
      5 C5B        34.3090   27.7500   64.6560 C.3       1 NDP482      0.0000 
      6 C4B        34.5670   28.1030   66.1160 C.3       1 NDP482      0.0000 
      7 O4B        33.2150   28.1660   66.7480 O.3       1 NDP482      0.0000 
      8 C3B        35.2530   26.9490   66.7670 C.3       1 NDP482      0.0000 
      9 O3B        35.9150   27.3700   67.9670 O.3       1 NDP482      0.0000 
     10 C2B        34.0820   26.0600   67.0100 C.3       1 NDP482      0.0000 
     11 O2B        34.3410   24.8590   67.6730 O.3       1 NDP482      0.0000 
     12 C1B        33.1240   27.0290   67.6610 C.3       1 NDP482      0.0000 
     13 N9A        31.7360   26.5600   67.6760 N.pl3     1 NDP482      0.0000 
     14 C8A        31.1150   25.7940   66.7010 C.2       1 NDP482      0.0000 
     15 N7A        29.8770   25.4320   67.0190 N.2       1 NDP482      0.0000 
     16 C5A        29.6820   25.9830   68.2400 C.ar      1 NDP482      0.0000 
     17 C6A        28.5500   25.9600   69.1110 C.ar      1 NDP482      0.0000 
     18 N6A        27.4220   25.3230   68.8160 N.pl3     1 NDP482      0.0000 
     19 N1A        28.6880   26.6380   70.2960 N.ar      1 NDP482      0.0000 
     20 C2A        29.8190   27.2970   70.6290 C.ar      1 NDP482      0.0000 
     21 N3A        30.9530   27.3790   69.8670 N.ar      1 NDP482      0.0000 
     22 C4A        30.8280   26.6980   68.6630 C.ar      1 NDP482      0.0000 
     23 O3         33.4280   28.6430   61.9350 O.3       1 NDP482      0.0000 
     24 PN         34.7210   28.3250   61.0700 P.3       1 NDP482      0.0000 
     25 O1N        35.5320   27.2970   61.7710 O.co2     1 NDP482      0.0000 
     26 O2N        35.3580   29.6540   60.8300 O.co2     1 NDP482      0.0000 
     27 O5D        34.2180   27.7960   59.6280 O.3       1 NDP482      0.0000 
     28 C5D        33.2370   26.7340   59.4670 C.3       1 NDP482      0.0000 
     29 C4D        33.9080   25.3940   59.2900 C.3       1 NDP482      0.0000 
     30 O4D        33.5720   24.4930   60.3950 O.3       1 NDP482      0.0000 
     31 C3D        33.5330   24.5970   58.0280 C.3       1 NDP482      0.0000 
     32 O3D        34.1180   25.0750   56.8460 O.3       1 NDP482      0.0000 
     33 C2D        33.9070   23.1770   58.4340 C.3       1 NDP482      0.0000 
     34 O2D        35.2870   22.9560   58.1400 O.3       1 NDP482      0.0000 
     35 C1D        33.5780   23.1460   59.9360 C.3       1 NDP482      0.0000 
     36 N1N        32.2520   22.4740   60.2640 N.pl3     1 NDP482      0.0000 
     37 C2N        32.2510   21.1100   60.5130 C.2       1 NDP482      0.0000 
     38 C3N        31.0810   20.4090   60.8210 C.2       1 NDP482      0.0000 
     39 C7N        31.0730   18.9030   61.0960 C.2       1 NDP482      0.0000 
     40 O7N        31.6540   18.1420   60.3170 O.2       1 NDP482      0.0000 
     41 N7N        30.4220   18.4990   62.2030 N.am      1 NDP482      0.0000 
     42 C4N        29.8270   21.1380   60.8800 C.3       1 NDP482      0.0000 
     43 C5N        29.8300   22.5320   60.6260 C.2       1 NDP482      0.0000 
     44 C6N        31.0100   23.2030   60.3220 C.2       1 NDP482      0.0000 
     45 P2B        34.9900   23.6180   66.8500 P.3       1 NDP482      0.0000 
     46 O1X        36.3640   24.0370   66.4320 O.co2     1 NDP482      0.0000 
     47 O2X        34.9270   22.5060   67.8590 O.co2     1 NDP482      0.0000 
     48 O3X        34.0700   23.3780   65.6780 O.co2     1 NDP482      0.0000 
     49 H          35.0701   28.2403   64.0500 H         1 NDP482      0.0000 
     50 H          34.4126   26.6712   64.5456 H         1 NDP482      0.0000 
     51 H          35.0755   28.9771   66.2118 H         1 NDP482      0.0000 
     52 H          35.8896   26.4970   66.0548 H         1 NDP482      0.0000 
     53 H          33.6447   25.8864   65.9856 H         1 NDP482      0.0000 
     54 H          33.4832   27.3002   68.6060 H         1 NDP482      0.0000 
     55 H          31.5791   25.5541   65.8527 H         1 NDP482      0.0000 
     56 H          26.6893   25.3889   69.4934 H         1 NDP482      0.0000 
     57 H          27.4075   24.8351   67.9432 H         1 NDP482      0.0000 
     58 H          29.8372   27.8070   71.5800 H         1 NDP482      0.0000 
     59 H          32.5995   26.9237   58.5900 H         1 NDP482      0.0000 
     60 H          32.5754   26.6798   60.3450 H         1 NDP482      0.0000 
     61 H          34.9927   25.5201   59.2799 H         1 NDP482      0.0000 
     62 H          32.4288   24.6164   58.0010 H         1 NDP482      0.0000 
     63 H          33.2469   22.5145   57.9322 H         1 NDP482      0.0000 
     64 H          34.3781   22.5917   60.4308 H         1 NDP482      0.0000 
     65 H          33.1513   20.5843   60.4703 H         1 NDP482      0.0000 
     66 H          30.4037   17.5128   62.3674 H         1 NDP482      0.0000 
     67 H          30.0148   19.2211   62.7622 H         1 NDP482      0.0000 
     68 H          29.3470   20.9377   61.9004 H         1 NDP482      0.0000 
     69 H          29.0836   20.6242   60.1764 H         1 NDP482      0.0000 
     70 H          28.9377   23.0470   60.6699 H         1 NDP482      0.0000 
     71 H          31.0198   24.2041   60.1378 H         1 NDP482      0.0000 
     72 H          36.8516   27.5794   67.6859 H         1 NDP482      0.0000 
     73 H          34.8522   24.4280   56.6407 H         1 NDP482      0.0000 
     74 H          35.3002   22.1450   57.5551 H         1 NDP482      0.0000 
@<TRIPOS>BOND
     1    2    1 ar   
     2    3    1 ar   
     3    4    1 1    
     4   23    1 1    
     5    5    4 1    
     6    6    5 1    
     7   49    5 1    
     8   50    5 1    
     9    7    6 1    
    10    8    6 1    
    11   51    6 1    
    12   12    7 1    
    13    9    8 1    
    14   10    8 1    
    15   52    8 1    
    16   72    9 1    
    17   11   10 1    
    18   12   10 1    
    19   53   10 1    
    20   45   11 1    
    21   13   12 1    
    22   54   12 1    
    23   14   13 1    
    24   22   13 1    
    25   15   14 2    
    26   55   14 1    
    27   16   15 1    
    28   17   16 ar   
    29   22   16 ar   
    30   18   17 1    
    31   19   17 ar   
    32   56   18 1    
    33   57   18 1    
    34   20   19 ar   
    35   21   20 ar   
    36   58   20 1    
    37   22   21 ar   
    38   24   23 1    
    39   25   24 ar   
    40   26   24 ar   
    41   27   24 1    
    42   28   27 1    
    43   29   28 1    
    44   59   28 1    
    45   60   28 1    
    46   30   29 1    
    47   31   29 1    
    48   61   29 1    
    49   35   30 1    
    50   32   31 1    
    51   33   31 1    
    52   62   31 1    
    53   73   32 1    
    54   34   33 1    
    55   35   33 1    
    56   63   33 1    
    57   74   34 1    
    58   36   35 1    
    59   64   35 1    
    60   37   36 1    
    61   44   36 1    
    62   38   37 2    
    63   65   37 1    
    64   39   38 1    
    65   42   38 1    
    66   40   39 2    
    67   41   39 am   
    68   66   41 1    
    69   67   41 1    
    70   43   42 1    
    71   68   42 1    
    72   69   42 1    
    73   44   43 2    
    74   70   43 1    
    75   71   44 1    
    76   46   45 ar   
    77   47   45 ar   
    78   48   45 ar   
@<TRIPOS>SUBSTRUCTURE
     1 NDP482      1 GROUP   
@<TRIPOS>SET

