#    Name: 3l8x_N4D_1_INTS_M
#    Modification time : Mon Mar 24 21:09:10 2014

@<TRIPOS>MOLECULE
3l8x_N4D_1_INTS_M
   76     0     9     0     0
SMALL
NO_CHARGES


@<TRIPOS>ATOM
      1 CA         -4.3170   -3.5345  -18.4950 C.3       3 GLC5        0.0000 
      2 CA         -2.7150   -4.1120  -19.9000 C.3       9 GLL5        0.0000 
      3 CA         -5.9190   -2.9570  -17.0900 C.3       6 GLP5        0.0000 
      4 CA         -6.1525   -4.9940  -20.1995 C.3       3 GLC5        0.0000 
      5 CA         -5.9880   -3.3500  -21.6580 C.3       9 GLL5        0.0000 
      6 CA         -6.3170   -6.6380  -18.7410 C.3       6 GLP5        0.0000 
      7 CA         -2.3940    1.6085  -26.5575 C.3       3 GLC5        0.0000 
      8 CA         -0.7440    0.5500  -26.1740 C.3       9 GLL5        0.0000 
      9 CA         -4.0440    2.6670  -26.9410 C.3       6 GLP5        0.0000 
     10 CA         -1.7485   -1.0840  -27.1980 C.3       3 GLC5        0.0000 
     11 CA         -2.7530   -2.7180  -28.2220 C.3       6 GLP5        0.0000 
     12 CA          0.6090    0.3650  -24.8055 C.3       3 GLC5        0.0000 
     13 CA          1.9620    0.1800  -23.4370 C.3       6 GLP5        0.0000 
     14 CA         -0.5875    1.9870  -25.1775 C.3       3 GLC5        0.0000 
     15 CA         -0.4310    3.4240  -24.1810 C.3       6 GLP5        0.0000 
     16 CA         -4.3700   -5.9585  -18.9565 C.3       3 GLC5        0.0000 
     17 CA         -2.4230   -5.2790  -19.1720 C.3       9 GLL5        0.0000 
     18 CA          2.6995   -6.2770  -14.4260 C.3       3 GLC5        0.0000 
     19 CA          0.5220   -6.8180  -14.4380 C.3       9 GLL5        0.0000 
     20 CA          4.8770   -5.7360  -14.4140 C.3       6 GLP5        0.0000 
     21 CA         -0.5960  -10.3840  -14.0610 C.3       3 GLC5        0.0000 
     22 CA         -1.3470   -8.3210  -14.2300 C.3       9 GLL5        0.0000 
     23 CA          0.1550  -12.4470  -13.8920 C.3       6 GLP5        0.0000 
     24 CA         -5.6605   -0.1310  -24.8730 C.3       3 GLC5        0.0000 
     25 CA         -3.9440   -1.2290  -24.0520 C.3       9 GLL5        0.0000 
     26 CA         -7.3770    0.9670  -25.6940 C.3       6 GLP5        0.0000 
     27 CA         -6.8515   -1.4700  -24.3105 C.3       3 GLC5        0.0000 
     28 CA         -5.0170   -1.7790  -23.3540 C.3       9 GLL5        0.0000 
     29 CA         -8.6860   -1.1610  -25.2670 C.3       6 GLP5        0.0000 
     30 CA          1.4415   -7.2355  -17.1140 C.3       3 GLC5        0.0000 
     31 CA          0.0300   -6.3630  -15.6650 C.3       9 GLL5        0.0000 
     32 CA          2.8530   -8.1080  -18.5630 C.3       6 GLP5        0.0000 
     33 CA          0.5715   -5.4460  -17.5580 C.3       3 GLC5        0.0000 
     34 CA          1.1130   -4.5290  -19.4510 C.3       6 GLP5        0.0000 
     35 CA         -1.4265   -4.0125  -23.9950 C.3       3 GLC5        0.0000 
     36 CA         -2.4210   -2.6680  -22.8390 C.3       9 GLL5        0.0000 
     37 CA         -0.4320   -5.3570  -25.1510 C.3       6 GLP5        0.0000 
     38 CA         -3.8240   -4.2035  -23.6750 C.3       3 GLC5        0.0000 
     39 CA         -5.2270   -5.7390  -24.5110 C.3       6 GLP5        0.0000 
     40 CA         -0.6810   -3.5650  -21.8935 C.3       3 GLC5        0.0000 
     41 CA          1.0590   -4.4620  -20.9480 C.3       6 GLP5        0.0000 
     42 CA         -3.9060   -2.9460  -17.5790 C.3       3 GLC5        0.0000 
     43 CA         -1.8930   -2.9350  -18.0680 C.3       9 GLL5        0.0000 
     44 CA         -0.3900   -3.7320  -18.7595 C.3       3 GLC5        0.0000 
     45 CA         -0.5685   -8.6170  -17.0160 C.3       3 GLC5        0.0000 
     46 CA         -1.1570   -6.8880  -16.1840 C.3       9 GLL5        0.0000 
     47 CA          0.0200  -10.3460  -17.8480 C.3       6 GLP5        0.0000 
     48 N          -2.2755   -8.9595  -17.9475 N.am      2 SEC2        0.0000 
     49 N          -2.1060   -7.3730  -18.3420 N.am      8 SEL2        0.0000 
     50 N          -2.4450  -10.5460  -17.5530 N.am      5 SEP2        0.0000 
     51 O          -4.2010   -5.5130  -21.7145 O.2       1 ALC1        0.0000 
     52 O          -3.2710   -4.2220  -21.1760 O.2       7 ALL1        0.0000 
     53 O          -5.1310   -6.8040  -22.2530 O.2       4 ALP1        0.0000 
     54 O          -2.9440    1.0595  -24.9325 O.2       1 ALC1        0.0000 
     55 O          -1.7070    0.0610  -25.2190 O.2       7 ALL1        0.0000 
     56 O          -4.1810    2.0580  -24.6460 O.2       4 ALP1        0.0000 
     57 N           0.7640   -1.4900  -23.8985 N.am      2 SEC2        0.0000 
     58 N          -0.4030   -1.6950  -24.4640 N.am      8 SEL2        0.0000 
     59 N           1.9310   -1.2850  -23.3330 N.am      5 SEP2        0.0000 
     60 CA         -6.4603   -1.7147  -21.4273 C.3       3 GLC5        0.0000 
     61 CA         -4.8090   -2.7770  -22.3930 C.3       9 GLL5        0.0000 
     62 CA         -7.5220   -0.3660  -20.8290 C.3       6 GLP5        0.0000 
     63 CA         -0.5535   -4.7281  -19.0865 C.3       3 GLC5        0.0000 
     64 CA         -1.8710   -5.1590  -17.9080 C.3       9 GLL5        0.0000 
     65 CA          1.5735   -8.6788  -13.5978 C.3       3 GLC5        0.0000 
     66 CA          2.9680  -10.0510  -13.1160 C.3       6 GLP5        0.0000 
     67 CA         -3.4357   -8.4825  -15.2415 C.3       3 GLC5        0.0000 
     68 CA         -5.2760   -8.8680  -15.6410 C.3       6 GLP5        0.0000 
     69 CA         -1.3733   -9.6305  -16.0630 C.3       3 GLC5        0.0000 
     70 CA         -1.8440   -7.8730  -15.4540 C.3       9 GLL5        0.0000 
     71 CA         -1.1510  -11.1640  -17.2840 C.3       6 GLP5        0.0000 
     72 CA         -4.9223   -0.2925  -22.3145 C.3       3 GLC5        0.0000 
     73 CA         -5.3640    0.9190  -20.9260 C.3       6 GLP5        0.0000 
     74 CA         -4.4934   -1.7049  -25.4931 C.3       3 GLC5        0.0000 
     75 CA         -4.8310   -1.7950  -27.3470 C.3       6 GLP5        0.0000 
     76 CA         -5.1354   -4.1081  -23.5843 C.3       3 GLC5        0.0000 
@<TRIPOS>BOND
@<TRIPOS>SUBSTRUCTURE
     1 ALC1       51 GROUP        1 X    ALC  0     ROOT ALC X 1
     2 SEC2       48 GROUP        1 X    SEC  0     **** SEC X 2
     3 GLC5        1 GROUP        1 X    GLC  0     **** GLC X 6
     4 ALP1       53 GROUP        1 Y    ALP  0     ROOT ALP Y 8
     5 SEP2       50 GROUP        1 Y    SEP  0     **** SEP Y 9
     6 GLP5        3 GROUP        1 Y    GLP  0     **** GLP Y 13
     7 ALL1       52 GROUP        1 Z    ALL  0     ROOT ALL Z 15
     8 SEL2       49 GROUP        1 Z    SEL  0     **** SEL Z 16
     9 GLL5        2 GROUP        1 Z    GLL  0     **** GLL Z 20
@<TRIPOS>SET

