#    Name: 3l8x_N4D_1_ligand
#    Modification time : Mon Mar 24 21:09:10 2014

@<TRIPOS>MOLECULE
3l8x_N4D_1_ligand
   45    48     1     0     0
SMALL
NO_CHARGES


@<TRIPOS>ATOM
      1 C13        -4.8090   -2.7770  -22.3930 C.ar      1 N4D361      0.0000 
      2 C18        -1.4810   -1.1110  -24.5190 C.2       1 N4D361      0.0000 
      3 C17        -2.7150   -4.1120  -19.9000 C.ar      1 N4D361      0.0000 
      4 C16        -1.8710   -5.1590  -17.9080 C.ar      1 N4D361      0.0000 
      5 C15        -3.4980   -3.2250  -22.1360 C.ar      1 N4D361      0.0000 
      6 C19        -5.9880   -3.3500  -21.6580 C.3       1 N4D361      0.0000 
      7 C20        -0.7440    0.5500  -26.1740 C.3       1 N4D361      0.0000 
      8 C11        -2.4230   -5.2790  -19.1720 C.ar      1 N4D361      0.0000 
      9 C12        -2.6450   -1.6720  -23.7970 C.ar      1 N4D361      0.0000 
     10 C1         -0.1640   -7.7950  -13.7210 C.ar      1 N4D361      0.0000 
     11 C2          0.5220   -6.8180  -14.4380 C.ar      1 N4D361      0.0000 
     12 C3         -1.3470   -8.3210  -14.2300 C.ar      1 N4D361      0.0000 
     13 C4         -3.9440   -1.2290  -24.0520 C.ar      1 N4D361      0.0000 
     14 C5         -5.0170   -1.7790  -23.3540 C.ar      1 N4D361      0.0000 
     15 C6          0.0300   -6.3630  -15.6650 C.ar      1 N4D361      0.0000 
     16 C7         -1.8440   -7.8730  -15.4540 C.ar      1 N4D361      0.0000 
     17 C8         -2.4210   -2.6680  -22.8390 C.ar      1 N4D361      0.0000 
     18 C9         -2.5410   -6.6620  -19.3760 C.2       1 N4D361      0.0000 
     19 C10        -1.8930   -2.9350  -18.0680 C.ar      1 N4D361      0.0000 
     20 C14        -1.1570   -6.8880  -16.1840 C.ar      1 N4D361      0.0000 
     21 N21        -2.1060   -7.3730  -18.3420 N.2       1 N4D361      0.0000 
     22 N22        -1.5810   -3.9960  -17.2980 N.ar      1 N4D361      0.0000 
     23 N23        -2.4310   -2.9180  -19.3080 N.ar      1 N4D361      0.0000 
     24 N24        -1.6890   -6.4500  -17.4290 N.pl3     1 N4D361      0.0000 
     25 N25        -3.2710   -4.2220  -21.1760 N.pl3     1 N4D361      0.0000 
     26 N26        -1.7070    0.0610  -25.2190 N.am      1 N4D361      0.0000 
     27 O27        -0.4030   -1.6950  -24.4640 O.2       1 N4D361      0.0000 
     28 H           0.2020   -8.1251  -12.8212 H         1 N4D361      0.0000 
     29 H           1.3980   -6.4264  -14.0639 H         1 N4D361      0.0000 
     30 H          -1.8579   -9.0422  -13.7037 H         1 N4D361      0.0000 
     31 H          -4.1074   -0.4978  -24.7542 H         1 N4D361      0.0000 
     32 H          -5.9756   -1.4504  -23.5442 H         1 N4D361      0.0000 
     33 H           0.5420   -5.6413  -16.1862 H         1 N4D361      0.0000 
     34 H          -2.7185   -8.2632  -15.8286 H         1 N4D361      0.0000 
     35 H          -1.4655   -2.9917  -22.6504 H         1 N4D361      0.0000 
     36 H          -2.9137   -7.0292  -20.2146 H         1 N4D361      0.0000 
     37 H          -1.6814   -1.9460  -17.6284 H         1 N4D361      0.0000 
     38 H          -3.5738   -5.2295  -21.4715 H         1 N4D361      0.0000 
     39 H          -2.5646    0.6082  -25.0743 H         1 N4D361      0.0000 
     40 H          -6.0765   -4.3347  -21.8083 H         1 N4D361      0.0000 
     41 H          -5.9141   -3.2096  -20.6707 H         1 N4D361      0.0000 
     42 H          -6.8474   -2.9305  -21.9502 H         1 N4D361      0.0000 
     43 H           0.1429    0.7294  -25.7484 H         1 N4D361      0.0000 
     44 H          -0.5874   -0.1058  -26.9126 H         1 N4D361      0.0000 
     45 H          -1.0433    1.4042  -26.5991 H         1 N4D361      0.0000 
@<TRIPOS>BOND
     1    5    1 ar   
     2    6    1 1    
     3   14    1 ar   
     4    9    2 1    
     5   26    2 am   
     6   27    2 2    
     7    8    3 ar   
     8   23    3 ar   
     9   25    3 1    
    10    8    4 ar   
    11   22    4 ar   
    12   24    4 1    
    13   17    5 ar   
    14   25    5 1    
    15   40    6 1    
    16   41    6 1    
    17   42    6 1    
    18   26    7 1    
    19   43    7 1    
    20   44    7 1    
    21   45    7 1    
    22   18    8 1    
    23   13    9 ar   
    24   17    9 ar   
    25   11   10 ar   
    26   12   10 ar   
    27   28   10 1    
    28   15   11 ar   
    29   29   11 1    
    30   16   12 ar   
    31   30   12 1    
    32   14   13 ar   
    33   31   13 1    
    34   32   14 1    
    35   20   15 ar   
    36   33   15 1    
    37   20   16 ar   
    38   34   16 1    
    39   35   17 1    
    40   21   18 2    
    41   36   18 1    
    42   22   19 ar   
    43   23   19 ar   
    44   37   19 1    
    45   24   20 1    
    46   24   21 1    
    47   38   25 1    
    48   39   26 1    
@<TRIPOS>SUBSTRUCTURE
     1 N4D361      1 GROUP   
@<TRIPOS>SET

