#    Name: 2iwu_NP5_1_INTS_M
#    Modification time : Tue Mar 25 18:49:45 2014

@<TRIPOS>MOLECULE
2iwu_NP5_1_INTS_M
   41     0     6     0     0
SMALL
NO_CHARGES


@<TRIPOS>ATOM
      1 CA         15.7310  -33.9405   -4.2685 C.3       2 GLC5        0.0000 
      2 CA         17.6240  -33.1570   -4.5310 C.3       6 GLL5        0.0000 
      3 CA         13.8380  -34.7240   -4.0060 C.3       4 GLP5        0.0000 
      4 CA         15.9295  -33.5860   -3.0140 C.3       2 GLC5        0.0000 
      5 CA         17.6450  -32.2430   -3.4850 C.3       6 GLL5        0.0000 
      6 CA         14.2140  -34.9290   -2.5430 C.3       4 GLP5        0.0000 
      7 CA         19.6980  -37.1710   -3.7015 C.3       2 GLC5        0.0000 
      8 CA         20.4270  -35.4990   -3.5290 C.3       6 GLL5        0.0000 
      9 CA         18.9690  -38.8430   -3.8740 C.3       4 GLP5        0.0000 
     10 CA         22.6985  -31.3925   -7.4670 C.3       2 GLC5        0.0000 
     11 CA         22.8080  -33.3430   -6.5040 C.3       6 GLL5        0.0000 
     12 CA         22.5890  -29.4420   -8.4300 C.3       4 GLP5        0.0000 
     13 CA         22.8430  -34.2825   -9.4375 C.3       2 GLC5        0.0000 
     14 CA         21.9820  -34.1990   -7.4310 C.3       6 GLL5        0.0000 
     15 CA         23.7040  -34.3660  -11.4440 C.3       4 GLP5        0.0000 
     16 CA         18.8360  -34.2850   -7.9615 C.3       2 GLC5        0.0000 
     17 CA         19.6300  -36.3030   -7.4940 C.3       6 GLL5        0.0000 
     18 CA         18.0420  -32.2670   -8.4290 C.3       4 GLP5        0.0000 
     19 CA         18.9695  -37.8555   -6.4715 C.3       2 GLC5        0.0000 
     20 CA         18.3090  -39.4080   -5.4490 C.3       4 GLP5        0.0000 
     21 O          15.7255  -32.0145   -5.4985 O.2       1 ALC1        0.0000 
     22 O          16.7110  -33.0120   -5.5390 O.2       5 ALL1        0.0000 
     23 O          14.7400  -31.0170   -5.4580 O.2       3 ALP1        0.0000 
     24 CA         20.4270  -33.6125    0.3870 C.3       2 GLC5        0.0000 
     25 CA         20.5350  -33.6270   -1.3060 C.3       6 GLL5        0.0000 
     26 CA         20.3190  -33.5980    2.0800 C.3       4 GLP5        0.0000 
     27 CA         18.0560  -32.9768   -6.4840 C.3       2 GLC5        0.0000 
     28 CA         18.5160  -34.2160   -4.5470 C.3       6 GLL5        0.0000 
     29 CA         18.2807  -36.0800   -3.6608 C.3       2 GLC5        0.0000 
     30 CA         17.5830  -37.8750   -3.2860 C.3       4 GLP5        0.0000 
     31 CA         19.3723  -31.0970   -3.1578 C.3       2 GLC5        0.0000 
     32 CA         20.6390  -29.8820   -3.3450 C.3       4 GLP5        0.0000 
     33 CA         16.6833  -32.6210   -1.3547 C.3       2 GLC5        0.0000 
     34 CA         18.5660  -32.3810   -2.4560 C.3       6 GLL5        0.0000 
     35 CA         15.2610  -32.9300    0.2610 C.3       4 GLP5        0.0000 
     36 CA         20.3182  -31.7082   -2.6193 C.3       2 GLC5        0.0000 
     37 CA         19.4600  -33.4420   -2.4810 C.3       6 GLL5        0.0000 
     38 CA         21.3412  -31.5718   -4.0228 C.3       2 GLC5        0.0000 
     39 CA         22.2030  -33.6060   -4.0360 C.3       6 GLL5        0.0000 
     40 CA         19.1453  -36.3745   -9.2923 C.3       2 GLC5        0.0000 
     41 CA         17.9590  -36.4120  -10.7950 C.3       4 GLP5        0.0000 
@<TRIPOS>BOND
@<TRIPOS>SUBSTRUCTURE
     1 ALC1       21 GROUP        1 X    ALC  0     ROOT ALC X 1
     2 GLC5        1 GROUP        1 X    GLC  0     **** GLC X 6
     3 ALP1       23 GROUP        1 Y    ALP  0     ROOT ALP Y 8
     4 GLP5        3 GROUP        1 Y    GLP  0     **** GLP Y 13
     5 ALL1       22 GROUP        1 Z    ALL  0     ROOT ALL Z 15
     6 GLL5        2 GROUP        1 Z    GLL  0     **** GLL Z 20
@<TRIPOS>SET

