#    Name: 2iwu_NP5_1_ligand
#    Modification time : Tue Mar 25 18:49:45 2014

@<TRIPOS>MOLECULE
2iwu_NP5_1_ligand
   39    40     1     0     0
SMALL
NO_CHARGES


@<TRIPOS>ATOM
      1 C1         18.5050  -35.2070   -5.6720 C.2       1 NP51215     0.0000 
      2 O10        19.7720  -35.6510   -6.2310 O.3       1 NP51215     0.0000 
      3 C2         18.5160  -34.2160   -4.5470 C.ar      1 NP51215     0.0000 
      4 C3         17.6240  -33.1570   -4.5310 C.ar      1 NP51215     0.0000 
      5 C4         17.6450  -32.2430   -3.4850 C.ar      1 NP51215     0.0000 
      6 C5         18.5660  -32.3810   -2.4560 C.ar      1 NP51215     0.0000 
      7 C6         19.4600  -33.4420   -2.4810 C.ar      1 NP51215     0.0000 
      8 C7         19.4410  -34.3540   -3.5240 C.ar      1 NP51215     0.0000 
      9 C8         20.4270  -35.4990   -3.5290 C.3       1 NP51215     0.0000 
     10 C9         21.7940  -35.0650   -4.0150 C.2       1 NP51215     0.0000 
     11 C10        22.2030  -33.6060   -4.0360 C.3       1 NP51215     0.0000 
     12 C11        21.8840  -32.9170   -5.3650 C.3       1 NP51215     0.0000 
     13 C12        22.8080  -33.3430   -6.5040 C.3       1 NP51215     0.0000 
     14 C13        21.9820  -34.1990   -7.4310 C.2       1 NP51215     0.0000 
     15 C14        21.8780  -35.5020   -7.1880 C.2       1 NP51215     0.0000 
     16 C15        21.0330  -36.3710   -8.0850 C.3       1 NP51215     0.0000 
     17 C16        19.6300  -36.3030   -7.4940 C.3       1 NP51215     0.0000 
     18 O1         17.4590  -35.6570   -6.1140 O.2       1 NP51215     0.0000 
     19 O3         16.7110  -33.0120   -5.5390 O.3       1 NP51215     0.0000 
     20 O4         18.5790  -31.4770   -1.4380 O.3       1 NP51215     0.0000 
     21 CL1        20.5350  -33.6270   -1.3060 Cl        1 NP51215     0.0000 
     22 O5         22.5860  -35.9180   -4.3840 O.2       1 NP51215     0.0000 
     23 H          16.9747  -31.4607   -3.4737 H         1 NP51215     0.0000 
     24 H          20.0509  -36.2992   -4.1777 H         1 NP51215     0.0000 
     25 H          20.5171  -35.9049   -2.5143 H         1 NP51215     0.0000 
     26 H          23.2825  -33.5272   -3.8470 H         1 NP51215     0.0000 
     27 H          21.6864  -33.0709   -3.2273 H         1 NP51215     0.0000 
     28 H          21.9597  -31.8287   -5.2295 H         1 NP51215     0.0000 
     29 H          20.8445  -33.1423   -5.6428 H         1 NP51215     0.0000 
     30 H          23.6249  -33.9135   -6.1045 H         1 NP51215     0.0000 
     31 H          23.1593  -32.4707   -7.0219 H         1 NP51215     0.0000 
     32 H          21.5436  -33.7110   -8.2066 H         1 NP51215     0.0000 
     33 H          22.3381  -35.9886   -6.4161 H         1 NP51215     0.0000 
     34 H          21.3834  -37.3793   -8.0575 H         1 NP51215     0.0000 
     35 H          21.0220  -35.9757   -9.0769 H         1 NP51215     0.0000 
     36 H          19.0042  -35.7422   -8.1733 H         1 NP51215     0.0000 
     37 H          19.2575  -37.3121   -7.3914 H         1 NP51215     0.0000 
     38 H          16.1422  -32.2370   -5.2634 H         1 NP51215     0.0000 
     39 H          19.5221  -31.1471   -1.3970 H         1 NP51215     0.0000 
@<TRIPOS>BOND
     1    2    1 1    
     2    3    1 1    
     3   18    1 2    
     4   17    2 1    
     5    4    3 ar   
     6    8    3 ar   
     7    5    4 ar   
     8   19    4 1    
     9    6    5 ar   
    10   23    5 1    
    11    7    6 ar   
    12   20    6 1    
    13    8    7 ar   
    14   21    7 1    
    15    9    8 1    
    16   10    9 1    
    17   24    9 1    
    18   25    9 1    
    19   11   10 1    
    20   22   10 2    
    21   12   11 1    
    22   26   11 1    
    23   27   11 1    
    24   13   12 1    
    25   28   12 1    
    26   29   12 1    
    27   14   13 1    
    28   30   13 1    
    29   31   13 1    
    30   15   14 2    
    31   32   14 1    
    32   16   15 1    
    33   33   15 1    
    34   17   16 1    
    35   34   16 1    
    36   35   16 1    
    37   36   17 1    
    38   37   17 1    
    39   38   19 1    
    40   39   20 1    
@<TRIPOS>SUBSTRUCTURE
     1 NP51215     1 GROUP   
@<TRIPOS>SET

