#    Name: 1lvu_9PP_1_INTS_M
#    Modification time : Mon Apr  7 14:21:39 2014

@<TRIPOS>MOLECULE
1lvu_9PP_1_INTS_M
   54     0     9     0     0
SMALL
NO_CHARGES


@<TRIPOS>ATOM
      1 N          39.4790   61.9820  167.1275 N.am      2 SEC2        0.0000 
      2 N          40.6190   62.1460  168.1210 N.am      8 SEL2        0.0000 
      3 N          38.3390   61.8180  166.1340 N.am      5 SEP2        0.0000 
      4 CA         43.5990   64.0465  166.1040 C.3       3 GLC5        0.0000 
      5 CA         41.9380   64.2710  167.3770 C.3       9 GLL5        0.0000 
      6 CA         45.2600   63.8220  164.8310 C.3       6 GLP5        0.0000 
      7 O          40.0895   64.1380  165.6250 O.2       1 ALC1        0.0000 
      8 O          41.2860   64.6940  166.3950 O.2       7 ALL1        0.0000 
      9 O          38.8930   63.5820  164.8550 O.2       4 ALP1        0.0000 
     10 N          43.5585   66.1150  167.2095 N.am      2 SEC2        0.0000 
     11 N          43.1150   64.9640  167.8140 N.am      8 SEL2        0.0000 
     12 N          44.0020   67.2660  166.6050 N.am      5 SEP2        0.0000 
     13 CA         45.9610   65.2975  169.3560 C.3       3 GLC5        0.0000 
     14 CA         43.9180   64.5650  168.9100 C.3       9 GLL5        0.0000 
     15 CA         48.0040   66.0300  169.8020 C.3       6 GLP5        0.0000 
     16 CA         45.4995   64.4325  167.7035 C.3       3 GLC5        0.0000 
     17 CA         47.0810   64.3000  166.4970 C.3       6 GLP5        0.0000 
     18 CA         45.0720   62.8935  169.0570 C.3       3 GLC5        0.0000 
     19 CA         46.2260   61.2220  169.2040 C.3       6 GLP5        0.0000 
     20 CA         43.8035   65.1675  170.6065 C.3       3 GLC5        0.0000 
     21 CA         43.6890   65.7700  172.3030 C.3       6 GLP5        0.0000 
     22 O          44.5095   66.2860  167.9155 O.2       1 ALC1        0.0000 
     23 O          45.0170   65.3060  169.2260 O.2       7 ALL1        0.0000 
     24 O          44.0020   67.2660  166.6050 O.2       4 ALP1        0.0000 
     25 O          45.2855   66.4605  168.6670 O.2       1 ALC1        0.0000 
     26 O          45.5540   67.6150  168.1080 O.2       4 ALP1        0.0000 
     27 CA         44.3580   61.9975  169.2285 C.3       3 GLC5        0.0000 
     28 CA         42.4900   62.7730  169.2530 C.3       9 GLL5        0.0000 
     29 CA         43.0895   64.2715  170.7780 C.3       3 GLC5        0.0000 
     30 CA         44.3640   61.0950  170.0510 C.3       3 GLC5        0.0000 
     31 CA         42.5020   60.9680  170.8980 C.3       9 GLL5        0.0000 
     32 CA         40.6360   63.8855  171.7905 C.3       3 GLC5        0.0000 
     33 CA         41.1270   61.9480  172.7460 C.3       9 GLL5        0.0000 
     34 CA         40.1450   65.8230  170.8350 C.3       6 GLP5        0.0000 
     35 CA         42.7505   63.3380  173.1745 C.3       3 GLC5        0.0000 
     36 CA         44.3740   64.7280  173.6030 C.3       6 GLP5        0.0000 
     37 CA         40.8315   63.1355  174.1685 C.3       3 GLC5        0.0000 
     38 CA         40.5360   64.3230  175.5910 C.3       6 GLP5        0.0000 
     39 CA         40.3480   57.4745  173.0620 C.3       3 GLC5        0.0000 
     40 CA         41.7990   58.3710  172.6320 C.3       9 GLL5        0.0000 
     41 CA         38.8970   56.5780  173.4920 C.3       6 GLP5        0.0000 
     42 CA         40.7690   57.5375  171.2020 C.3       3 GLC5        0.0000 
     43 CA         39.7390   56.7040  169.7720 C.3       6 GLP5        0.0000 
     44 N          41.2370   55.2380  173.3400 N.am      2 SEC2        0.0000 
     45 N          42.3210   55.9870  172.9760 N.am      8 SEL2        0.0000 
     46 N          40.1530   54.4890  173.7040 N.am      5 SEP2        0.0000 
     47 N          42.1085   55.7605  171.4515 N.am      2 SEC2        0.0000 
     48 N          41.8960   55.5340  169.9270 N.am      5 SEP2        0.0000 
     49 N          45.4755   57.3355  173.1655 N.am      2 SEC2        0.0000 
     50 N          44.1440   57.6140  172.8910 N.am      8 SEL2        0.0000 
     51 N          46.8070   57.0570  173.4400 N.am      5 SEP2        0.0000 
     52 CA         41.8215   62.6500  166.0945 C.3       3 GLC5        0.0000 
     53 CA         41.6380   63.0850  168.1910 C.3       9 GLL5        0.0000 
     54 CA         41.8550   61.6220  164.4050 C.3       6 GLP5        0.0000 
@<TRIPOS>BOND
@<TRIPOS>SUBSTRUCTURE
     1 ALC1        7 GROUP        1 X    ALC  0     ROOT ALC X 1
     2 SEC2        1 GROUP        1 X    SEC  0     **** SEC X 2
     3 GLC5        4 GROUP        1 X    GLC  0     **** GLC X 6
     4 ALP1        9 GROUP        1 Y    ALP  0     ROOT ALP Y 8
     5 SEP2        3 GROUP        1 Y    SEP  0     **** SEP Y 9
     6 GLP5        6 GROUP        1 Y    GLP  0     **** GLP Y 13
     7 ALL1        8 GROUP        1 Z    ALL  0     ROOT ALL Z 15
     8 SEL2        2 GROUP        1 Z    SEL  0     **** SEL Z 16
     9 GLL5        5 GROUP        1 Z    GLL  0     **** GLL Z 20
@<TRIPOS>SET

