#    Name: 1lvu_9PP_1_ligand
#    Modification time : Mon Apr  7 14:21:39 2014

@<TRIPOS>MOLECULE
1lvu_9PP_1_ligand
   32    33     1     0     0
SMALL
NO_CHARGES


@<TRIPOS>ATOM
      1 N9         41.9590   61.6290  169.8140 N.pl3     1 9PP6100     0.0000 
      2 C8         40.8240   61.2750  169.1000 C.2       1 9PP6100     0.0000 
      3 N7         40.6190   62.1460  168.1210 N.2       1 9PP6100     0.0000 
      4 C5         41.6380   63.0850  168.1910 C.ar      1 9PP6100     0.0000 
      5 C6         41.9380   64.2710  167.3770 C.ar      1 9PP6100     0.0000 
      6 N6         41.2860   64.6940  166.3950 N.pl3     1 9PP6100     0.0000 
      7 N1         43.1150   64.9640  167.8140 N.ar      1 9PP6100     0.0000 
      8 C2         43.9180   64.5650  168.9100 C.ar      1 9PP6100     0.0000 
      9 N2         45.0170   65.3060  169.2260 N.pl3     1 9PP6100     0.0000 
     10 N3         43.6340   63.4590  169.6650 N.ar      1 9PP6100     0.0000 
     11 C4         42.4900   62.7730  169.2530 C.ar      1 9PP6100     0.0000 
     12 C10        42.5020   60.9680  170.8980 C.3       1 9PP6100     0.0000 
     13 C11        41.5010   60.6560  172.0270 C.3       1 9PP6100     0.0000 
     14 C12        41.1270   61.9480  172.7460 C.3       1 9PP6100     0.0000 
     15 O13        42.1240   59.7420  172.9700 O.3       1 9PP6100     0.0000 
     16 P          42.7310   57.3840  173.3300 P.3       1 9PP6100     0.0000 
     17 C14        41.7990   58.3710  172.6320 C.3       1 9PP6100     0.0000 
     18 O2P        42.3210   55.9870  172.9760 O.co2     1 9PP6100     0.0000 
     19 O3P        44.1440   57.6140  172.8910 O.co2     1 9PP6100     0.0000 
     20 O1P        42.6390   57.5620  174.8100 O.co2     1 9PP6100     0.0000 
     21 H          40.2817   60.4966  169.3128 H         1 9PP6100     0.0000 
     22 H          44.9621   66.2835  169.0224 H         1 9PP6100     0.0000 
     23 H          45.7817   64.8071  169.6337 H         1 9PP6100     0.0000 
     24 H          43.3395   61.5428  171.3743 H         1 9PP6100     0.0000 
     25 H          42.9656   59.9870  170.6129 H         1 9PP6100     0.0000 
     26 H          40.6245   60.2300  171.5945 H         1 9PP6100     0.0000 
     27 H          41.8777   58.2022  171.5465 H         1 9PP6100     0.0000 
     28 H          40.7656   58.1262  172.9239 H         1 9PP6100     0.0000 
     29 H          41.9258   62.3915  173.1524 H         1 9PP6100     0.0000 
     30 H          40.7081   62.6106  172.1252 H         1 9PP6100     0.0000 
     31 H          40.4739   61.7857  173.4857 H         1 9PP6100     0.0000 
     32 H          40.7560   63.9074  166.0782 H         1 9PP6100     0.0000 
@<TRIPOS>BOND
     1    2    1 1    
     2   11    1 1    
     3   12    1 1    
     4    3    2 2    
     5   21    2 1    
     6    4    3 1    
     7    5    4 ar   
     8   11    4 ar   
     9    6    5 1    
    10    7    5 ar   
    11   32    6 1    
    12    8    7 ar   
    13    9    8 1    
    14   10    8 ar   
    15   22    9 1    
    16   23    9 1    
    17   11   10 ar   
    18   13   12 1    
    19   24   12 1    
    20   25   12 1    
    21   14   13 1    
    22   15   13 1    
    23   26   13 1    
    24   29   14 1    
    25   30   14 1    
    26   31   14 1    
    27   17   15 1    
    28   17   16 1    
    29   18   16 ar   
    30   19   16 ar   
    31   20   16 ar   
    32   27   17 1    
    33   28   17 1    
@<TRIPOS>SUBSTRUCTURE
     1 9PP6100     1 GROUP   
@<TRIPOS>SET

