#    Name: 2Q8E_1_CAVITY_N1_6.mol2
#    Modification time : Tue Mar 11 07:06:59 2014

@<TRIPOS>MOLECULE
2Q8E_1_CAVITY_N1_6.mol2
  131     0     7     0     0
SMALL
NO_CHARGES


@<TRIPOS>ATOM
      1 CA        -26.0987  -62.3653  -11.7867 C.3       6 GLY6        0.0000 
      2 CA        -24.7112  -62.7753  -12.1824 C.3       6 GLY6        0.0000 
      3 N         -26.6100  -62.8015  -13.1278 N.2       2 ALA2        0.0000 
      4 N         -25.2224  -63.2114  -13.5234 N.2       2 ALA2        0.0000 
      5 N         -23.8348  -63.6213  -13.9191 N.2       2 ALA2        0.0000 
      6 N         -25.7336  -63.6476  -14.8645 N.2       2 ALA2        0.0000 
      7 N         -24.3461  -64.0575  -15.2602 N.2       2 ALA2        0.0000 
      8 CA        -22.9585  -64.4674  -15.6558 C.3       6 GLY6        0.0000 
      9 DU        -24.8573  -64.4937  -16.6012 H         7 CUB7        0.0000 
     10 CA        -23.4697  -64.9036  -16.9969 C.3       6 GLY6        0.0000 
     11 CA        -22.0821  -65.3135  -17.3925 C.3       6 GLY6        0.0000 
     12 N         -23.9810  -65.3398  -18.3379 N.2       2 ALA2        0.0000 
     13 CA        -23.9485  -60.9637  -11.3846 C.3       6 GLY6        0.0000 
     14 CA        -22.5609  -61.3736  -11.7802 C.3       6 GLY6        0.0000 
     15 O         -25.8473  -60.9899  -12.3299 O.2       2 ALA2        0.0000 
     16 CA        -24.4597  -61.3999  -12.7256 C.3       6 GLY6        0.0000 
     17 CA        -23.0721  -61.8098  -13.1213 C.3       6 GLY6        0.0000 
     18 O         -27.7461  -61.0162  -13.2753 O.2       2 ALA2        0.0000 
     19 DU        -26.3586  -61.4261  -13.6710 H         7 CUB7        0.0000 
     20 DU        -24.9710  -61.8360  -14.0666 H         7 CUB7        0.0000 
     21 CA        -23.5834  -62.2459  -14.4623 C.3       6 GLY6        0.0000 
     22 DU        -28.2574  -61.4523  -14.6164 H         7 CUB7        0.0000 
     23 DU        -25.4822  -62.2722  -15.4077 H         7 CUB7        0.0000 
     24 CA        -24.0946  -62.6821  -15.8033 C.3       6 GLY6        0.0000 
     25 CA        -22.7070  -63.0920  -16.1990 C.3       6 GLY6        0.0000 
     26 DU        -25.9935  -62.7083  -16.7487 H         7 CUB7        0.0000 
     27 DU        -24.6059  -63.1183  -17.1444 H         7 CUB7        0.0000 
     28 CA        -23.2183  -63.5282  -17.5401 C.3       6 GLY6        0.0000 
     29 CA        -21.8307  -63.9381  -17.9357 C.3       6 GLY6        0.0000 
     30 OG        -25.1171  -63.5544  -18.4854 O.2       1 SER1        0.0000 
     31 N         -23.7295  -63.9644  -18.8811 N.2       2 ALA2        0.0000 
     32 NZ        -30.3024  -63.1970  -19.9805 N.2       4 LYS4        0.0000 
     33 CA        -26.1239  -55.4214  -19.0690 C.3       6 GLY6        0.0000 
     34 OD1       -24.7363  -55.8313  -19.4647 O.3       3 ASP3        0.0000 
     35 OD1       -21.9611  -56.6512  -20.2560 O.3       3 ASP3        0.0000 
     36 CZ        -26.6351  -55.8576  -20.4101 C.ar      5 PHE5        0.0000 
     37 OG        -25.2475  -56.2675  -20.8057 O.2       1 SER1        0.0000 
     38 OG        -23.8599  -56.6774  -21.2014 O.2       1 SER1        0.0000 
     39 OG        -22.4723  -57.0874  -21.5971 O.2       1 SER1        0.0000 
     40 NZ        -21.0847  -57.4973  -21.9927 N.2       4 LYS4        0.0000 
     41 NZ        -19.6972  -57.9072  -22.3884 N.2       4 LYS4        0.0000 
     42 OG        -21.5960  -57.9334  -23.3338 O.2       1 SER1        0.0000 
     43 OG        -20.2084  -58.3434  -23.7294 O.2       1 SER1        0.0000 
     44 OD1       -24.4848  -54.4559  -20.0079 O.3       3 ASP3        0.0000 
     45 N         -23.0972  -54.8659  -20.4035 N.2       2 ALA2        0.0000 
     46 N         -21.7097  -55.2758  -20.7992 N.2       2 ALA2        0.0000 
     47 CA        -26.3837  -54.4822  -20.9532 C.3       6 GLY6        0.0000 
     48 OG        -24.9961  -54.8921  -21.3489 O.2       1 SER1        0.0000 
     49 OG        -23.6085  -55.3020  -21.7446 O.2       1 SER1        0.0000 
     50 OG        -22.2209  -55.7120  -22.1402 O.2       1 SER1        0.0000 
     51 NZ        -20.8333  -56.1219  -22.5359 N.2       4 LYS4        0.0000 
     52 CZ        -26.8949  -54.9183  -22.2943 C.ar      5 PHE5        0.0000 
     53 OG        -22.7321  -56.1481  -23.4813 O.2       1 SER1        0.0000 
     54 CA        -24.2334  -53.0805  -20.5511 C.3       6 GLY6        0.0000 
     55 N         -22.8458  -53.4905  -20.9467 N.2       2 ALA2        0.0000 
     56 N         -21.4582  -53.9004  -21.3424 N.2       2 ALA2        0.0000 
     57 CA        -24.7446  -53.5167  -21.8921 C.3       6 GLY6        0.0000 
     58 DU        -23.3571  -53.9266  -22.2878 H         7 CUB7        0.0000 
     59 DU        -21.9695  -54.3366  -22.6834 H         7 CUB7        0.0000 
     60 CZ        -25.2559  -53.9529  -23.2331 C.ar      5 PHE5        0.0000 
     61 CZ        -23.8683  -54.3628  -23.6288 C.ar      5 PHE5        0.0000 
     62 OG        -22.4807  -54.7727  -24.0245 O.2       1 SER1        0.0000 
     63 N         -23.6970  -59.5883  -11.9277 N.2       2 ALA2        0.0000 
     64 NZ        -22.3094  -59.9982  -12.3234 N.2       4 LYS4        0.0000 
     65 O         -25.5959  -59.6145  -12.8731 O.2       2 ALA2        0.0000 
     66 N         -24.2083  -60.0245  -13.2688 N.2       2 ALA2        0.0000 
     67 NZ        -22.8207  -60.4344  -13.6645 N.2       4 LYS4        0.0000 
     68 O         -27.4947  -59.6408  -13.8185 O.2       2 ALA2        0.0000 
     69 DU        -26.1071  -60.0507  -14.2142 H         7 CUB7        0.0000 
     70 DU        -24.7195  -60.4606  -14.6098 H         7 CUB7        0.0000 
     71 NZ        -23.3319  -60.8705  -15.0055 N.2       4 LYS4        0.0000 
     72 DU        -29.3935  -59.6670  -14.7639 H         7 CUB7        0.0000 
     73 DU        -28.0060  -60.0769  -15.1595 H         7 CUB7        0.0000 
     74 DU        -25.2308  -60.8968  -15.9509 H         7 CUB7        0.0000 
     75 NZ        -23.8432  -61.3067  -16.3465 N.2       4 LYS4        0.0000 
     76 NZ        -22.4556  -61.7166  -16.7422 N.2       4 LYS4        0.0000 
     77 NZ        -27.1296  -60.9230  -16.8962 N.2       4 LYS4        0.0000 
     78 DU        -25.7420  -61.3329  -17.2919 H         7 CUB7        0.0000 
     79 DU        -24.3544  -61.7429  -17.6876 H         7 CUB7        0.0000 
     80 NZ        -22.9668  -62.1528  -18.0832 N.2       4 LYS4        0.0000 
     81 CA        -21.5792  -62.5627  -18.4789 C.3       6 GLY6        0.0000 
     82 NZ        -26.2533  -61.7691  -18.6330 N.2       4 LYS4        0.0000 
     83 OG        -24.8657  -62.1790  -19.0286 O.2       1 SER1        0.0000 
     84 N         -23.4781  -62.5890  -19.4243 N.2       2 ALA2        0.0000 
     85 NZ        -30.9273  -60.9755  -18.7870 N.2       4 LYS4        0.0000 
     86 N         -23.9568  -58.6491  -13.8120 N.2       2 ALA2        0.0000 
     87 NZ        -22.5693  -59.0590  -14.2076 N.2       4 LYS4        0.0000 
     88 N         -27.2433  -58.2654  -14.3617 N.2       2 ALA2        0.0000 
     89 CA        -25.8557  -58.6753  -14.7574 C.3       6 GLY6        0.0000 
     90 OD1       -24.4681  -59.0852  -15.1530 O.3       3 ASP3        0.0000 
     91 NZ        -23.0805  -59.4951  -15.5487 N.2       4 LYS4        0.0000 
     92 DU        -27.7545  -58.7015  -15.7027 H         7 CUB7        0.0000 
     93 DU        -26.3669  -59.1115  -16.0984 H         7 CUB7        0.0000 
     94 OD1       -24.9793  -59.5214  -16.4941 O.3       3 ASP3        0.0000 
     95 OD1       -23.5917  -59.9313  -16.8897 O.3       3 ASP3        0.0000 
     96 DU        -29.6534  -58.7278  -16.6481 H         7 CUB7        0.0000 
     97 NZ        -28.2658  -59.1377  -17.0438 N.2       4 LYS4        0.0000 
     98 NZ        -26.8782  -59.5476  -17.4394 N.2       4 LYS4        0.0000 
     99 OD1       -25.4906  -59.9575  -17.8351 O.3       3 ASP3        0.0000 
    100 OD1       -24.1030  -60.3675  -18.2308 O.3       3 ASP3        0.0000 
    101 NZ        -22.7154  -60.7774  -18.6264 N.2       4 LYS4        0.0000 
    102 NZ        -21.3278  -61.1873  -19.0221 N.2       4 LYS4        0.0000 
    103 NZ        -30.1646  -59.1639  -17.9891 N.2       4 LYS4        0.0000 
    104 NZ        -26.0018  -60.3937  -19.1761 N.2       4 LYS4        0.0000 
    105 CZ        -24.6142  -60.8036  -19.5718 C.ar      5 PHE5        0.0000 
    106 CZ        -23.2266  -61.2136  -19.9675 C.ar      5 PHE5        0.0000 
    107 N         -21.8391  -61.6235  -20.3631 N.2       2 ALA2        0.0000 
    108 CA        -27.5031  -57.3261  -16.2459 C.3       6 GLY6        0.0000 
    109 CA        -26.1155  -57.7361  -16.6416 C.3       6 GLY6        0.0000 
    110 NZ        -28.0143  -57.7623  -17.5870 N.2       4 LYS4        0.0000 
    111 OD1       -26.6267  -58.1722  -17.9826 O.3       3 ASP3        0.0000 
    112 OD1       -25.2391  -58.5821  -18.3783 O.3       3 ASP3        0.0000 
    113 OD1       -22.4640  -59.4020  -19.1696 O.3       3 ASP3        0.0000 
    114 NZ        -21.0764  -59.8119  -19.5653 N.2       4 LYS4        0.0000 
    115 NZ        -28.5256  -58.1985  -18.9280 N.2       4 LYS4        0.0000 
    116 NZ        -25.7504  -59.0183  -19.7193 N.2       4 LYS4        0.0000 
    117 NZ        -24.3628  -59.4282  -20.1150 N.2       4 LYS4        0.0000 
    118 CZ        -22.9752  -59.8382  -20.5107 C.ar      5 PHE5        0.0000 
    119 N         -21.5876  -60.2481  -20.9063 N.2       2 ALA2        0.0000 
    120 N         -22.0989  -60.6842  -22.2474 N.2       2 ALA2        0.0000 
    121 CA        -26.3753  -56.7968  -18.5258 C.3       6 GLY6        0.0000 
    122 NZ        -20.8249  -58.4365  -20.1085 N.2       4 LYS4        0.0000 
    123 NZ        -28.2741  -56.8231  -19.4712 N.2       4 LYS4        0.0000 
    124 NZ        -26.8865  -57.2330  -19.8669 N.2       4 LYS4        0.0000 
    125 NZ        -25.4990  -57.6429  -20.2625 N.2       4 LYS4        0.0000 
    126 OG        -24.1114  -58.0528  -20.6582 O.2       1 SER1        0.0000 
    127 OG        -22.7238  -58.4628  -21.0539 O.2       1 SER1        0.0000 
    128 N         -21.3362  -58.8727  -21.4495 N.2       2 ALA2        0.0000 
    129 N         -19.9486  -59.2826  -21.8452 N.2       2 ALA2        0.0000 
    130 N         -21.8474  -59.3088  -22.7906 N.2       2 ALA2        0.0000 
    131 DU        -23.7211  -66.2790  -16.4537 H         7 CUB7        0.0000 
@<TRIPOS>BOND
@<TRIPOS>SUBSTRUCTURE
     1 SER1       30 GROUP   
     2 ALA2        3 GROUP   
     3 ASP3       34 GROUP   
     4 LYS4       32 GROUP   
     5 PHE5       36 GROUP   
     6 GLY6        1 GROUP   
     7 CUB7        9 GROUP   
@<TRIPOS>SET

