#    Name: 2q8e_GLY_GLY_VAL_M3L_1_INTS_M
#    Modification time : Mon Mar 24 21:01:24 2014

@<TRIPOS>MOLECULE
2q8e_GLY_GLY_VAL_M3L_1_INTS_M
   53     0     9     0     0
SMALL
NO_CHARGES


@<TRIPOS>ATOM
      1 O         -16.3125  -68.7275  -12.9445 O.2       1 ALC1        0.0000 
      2 O         -17.0720  -70.0520  -13.3810 O.2       7 ALL1        0.0000 
      3 O         -15.5530  -67.4030  -12.5080 O.2       4 ALP1        0.0000 
      4 CA        -17.4000  -70.8140  -15.8905 C.3       3 GLC5        0.0000 
      5 CA        -18.0410  -69.6580  -14.4500 C.3       9 GLL5        0.0000 
      6 CA        -16.7590  -71.9700  -17.3310 C.3       6 GLP5        0.0000 
      7 CA        -17.3105  -68.5230  -15.8035 C.3       3 GLC5        0.0000 
      8 CA        -16.5800  -67.3880  -17.1570 C.3       6 GLP5        0.0000 
      9 N         -18.1120  -66.4665  -12.6645 N.am      2 SEC2        0.0000 
     10 N         -18.7930  -67.6680  -13.3230 N.am      8 SEL2        0.0000 
     11 N         -17.4310  -65.2650  -12.0060 N.am      5 SEP2        0.0000 
     12 CA        -20.3865  -67.0705  -16.2140 C.3       3 GLC5        0.0000 
     13 CA        -21.3990  -67.8060  -14.4540 C.3       9 GLL5        0.0000 
     14 CA        -19.3740  -66.3350  -17.9740 C.3       6 GLP5        0.0000 
     15 CA        -20.9240  -65.8595  -14.9255 C.3       3 GLC5        0.0000 
     16 CA        -20.4490  -63.9130  -15.3970 C.3       6 GLP5        0.0000 
     17 CA        -21.3775  -66.1335  -17.5535 C.3       3 GLC5        0.0000 
     18 CA        -23.3810  -65.9320  -17.1330 C.3       9 GLL5        0.0000 
     19 CA        -21.9150  -64.9225  -16.2650 C.3       3 GLC5        0.0000 
     20 O         -22.6735  -64.1910  -19.5525 O.2       1 ALC1        0.0000 
     21 O         -23.1300  -63.7550  -18.1940 O.2       7 ALL1        0.0000 
     22 O         -22.2170  -64.6270  -20.9110 O.2       4 ALP1        0.0000 
     23 CA        -21.7580  -63.0920  -16.8345 C.3       3 GLC5        0.0000 
     24 CA        -23.0670  -62.2710  -18.2720 C.3       9 GLL5        0.0000 
     25 CA        -18.2860  -56.6210  -23.1205 C.3       3 GLC5        0.0000 
     26 CA        -19.7560  -58.1040  -22.9150 C.3       9 GLL5        0.0000 
     27 CA        -16.8160  -55.1380  -23.3260 C.3       6 GLP5        0.0000 
     28 CA        -20.5630  -57.5600  -24.8935 C.3       3 GLC5        0.0000 
     29 CA        -21.3700  -57.0160  -26.8720 C.3       6 GLP5        0.0000 
     30 CA        -18.9785  -59.0720  -24.4295 C.3       3 GLC5        0.0000 
     31 CA        -18.2010  -60.0400  -25.9440 C.3       6 GLP5        0.0000 
     32 CA        -21.6290  -61.1945  -23.5730 C.3       3 GLC5        0.0000 
     33 CA        -21.6830  -59.1960  -23.8870 C.3       9 GLL5        0.0000 
     34 CA        -21.5750  -63.1930  -23.2590 C.3       6 GLP5        0.0000 
     35 CA        -23.1700  -60.2420  -23.6585 C.3       3 GLC5        0.0000 
     36 CA        -24.6570  -61.2880  -23.4300 C.3       6 GLP5        0.0000 
     37 CA        -23.2700  -58.2655  -24.7600 C.3       3 GLC5        0.0000 
     38 CA        -24.8570  -57.3350  -25.6330 C.3       6 GLP5        0.0000 
     39 CA        -21.5265  -58.1060  -25.3795 C.3       3 GLC5        0.0000 
     40 CA        -19.9420  -59.6180  -24.9155 C.3       3 GLC5        0.0000 
     41 CA        -23.6010  -57.1345  -23.7685 C.3       3 GLC5        0.0000 
     42 CA        -21.8070  -56.9100  -23.1670 C.3       9 GLL5        0.0000 
     43 CA        -25.3950  -57.3590  -24.3700 C.3       6 GLP5        0.0000 
     44 CA        -21.5885  -56.9630  -25.0195 C.3       3 GLC5        0.0000 
     45 CA        -20.8148  -62.5132  -19.1240 C.3       3 GLC5        0.0000 
     46 CA        -22.4840  -61.8660  -19.6320 C.3       9 GLL5        0.0000 
     47 CA        -18.8540  -62.9580  -19.2960 C.3       6 GLP5        0.0000 
     48 CA        -20.4222  -61.5823  -19.8825 C.3       3 GLC5        0.0000 
     49 CA        -21.5380  -60.0450  -21.0620 C.3       9 GLL5        0.0000 
     50 CA        -23.7786  -61.6291  -20.8585 C.3       3 GLC5        0.0000 
     51 CA        -24.9480  -62.0400  -22.3030 C.3       6 GLP5        0.0000 
     52 CA        -21.7879  -61.8870  -21.8335 C.3       3 GLC5        0.0000 
     53 CA        -23.1412  -60.3038  -22.3525 C.3       3 GLC5        0.0000 
@<TRIPOS>BOND
@<TRIPOS>SUBSTRUCTURE
     1 ALC1        1 GROUP        1 X    ALC  0     ROOT ALC X 1
     2 SEC2        9 GROUP        1 X    SEC  0     **** SEC X 2
     3 GLC5        4 GROUP        1 X    GLC  0     **** GLC X 6
     4 ALP1        3 GROUP        1 Y    ALP  0     ROOT ALP Y 8
     5 SEP2       11 GROUP        1 Y    SEP  0     **** SEP Y 9
     6 GLP5        6 GROUP        1 Y    GLP  0     **** GLP Y 13
     7 ALL1        2 GROUP        1 Z    ALL  0     ROOT ALL Z 15
     8 SEL2       10 GROUP        1 Z    SEL  0     **** SEL Z 16
     9 GLL5        5 GROUP        1 Z    GLL  0     **** GLL Z 20
@<TRIPOS>SET

