#    Name: 2q8e_GLY_GLY_VAL_M3L_1_ligand
#    Modification time : Mon Mar 24 21:01:24 2014

@<TRIPOS>MOLECULE
2q8e_GLY_GLY_VAL_M3L_1_ligand
   58    57     4     0     0
SMALL
NO_CHARGES


@<TRIPOS>ATOM
      1 N         -17.0720  -70.0520  -13.3810 N.4       1 GLY33       0.0000
      2 CA        -18.0410  -69.6580  -14.4500 C.3       1 GLY33       0.0000
      3 C         -19.0770  -68.5960  -14.0850 C.2       1 GLY33       0.0000
      4 O         -18.7930  -67.6680  -13.3230 O.2       1 GLY33       0.0000
      5 HA2       -18.5878  -70.5669  -14.8061 H         1 GLY33       0.0000
      6 HA3       -17.4761  -69.2969  -15.3458 H         1 GLY33       0.0000
      7 HNCA      -16.5255  -69.2743  -13.0701 H         1 GLY33       0.0000
      8 H         -17.5365  -70.4237  -12.5773 H         1 GLY33       0.0000
      9 H         -16.4320  -70.7514  -13.6993 H         1 GLY33       0.0000
     10 N         -20.2820  -68.7450  -14.6450 N.am      2 GLY34       0.0000
     11 CA        -21.3990  -67.8060  -14.4540 C.3       2 GLY34       0.0000
     12 C         -22.1020  -67.5460  -15.7770 C.2       2 GLY34       0.0000
     13 O         -21.9920  -68.3570  -16.7150 O.2       2 GLY34       0.0000
     14 HNCA      -20.4992  -69.5655  -15.2692 H         2 GLY34       0.0000
     15 HA2       -21.0360  -66.8528  -14.0589 H         2 GLY34       0.0000
     16 HA3       -22.1268  -68.2140  -13.7468 H         2 GLY34       0.0000
     17 N         -22.8360  -66.4310  -15.8550 N.am      3 VAL35       0.0000
     18 CA        -23.3810  -65.9320  -17.1330 C.3       3 VAL35       0.0000
     19 C         -23.4900  -64.4110  -17.0890 C.2       3 VAL35       0.0000
     20 O         -23.8750  -63.8460  -16.0590 O.2       3 VAL35       0.0000
     21 CB        -24.7570  -66.5700  -17.4980 C.3       3 VAL35       0.0000
     22 HNCA      -23.0635  -65.8535  -15.0188 H         3 VAL35       0.0000
     23 HA        -22.6862  -66.1831  -17.9459 H         3 VAL35       0.0000
     24 HB        -24.6944  -67.5644  -17.5832 H         3 VAL35       0.0000
     25 H         -25.4510  -66.3784  -16.8040 H         3 VAL35       0.0000
     26 H         -25.1084  -66.2229  -18.3675 H         3 VAL35       0.0000
     27 N         -23.1300  -63.7550  -18.1940 N.am      4 M3L36       0.0000
     28 CA        -23.0670  -62.2710  -18.2720 C.3       4 M3L36       0.0000
     29 CB        -22.4840  -61.8660  -19.6320 C.3       4 M3L36       0.0000
     30 CG        -22.4430  -60.3680  -19.8760 C.3       4 M3L36       0.0000
     31 CD        -21.5380  -60.0450  -21.0620 C.3       4 M3L36       0.0000
     32 CE        -21.7130  -58.5940  -21.4880 C.3       4 M3L36       0.0000
     33 NZ        -21.2330  -58.2410  -22.8550 N.4       4 M3L36       0.0000
     34 C         -24.3880  -61.5630  -18.0100 C.2       4 M3L36       0.0000
     35 O         -25.4280  -61.9220  -18.5710 O.2       4 M3L36       0.0000
     36 CM1       -19.7560  -58.1040  -22.9150 C.3       4 M3L36       0.0000
     37 CM2       -21.6830  -59.1960  -23.8870 C.3       4 M3L36       0.0000
     38 CM3       -21.8070  -56.9100  -23.1670 C.3       4 M3L36       0.0000
     39 H         -22.8688  -64.2490  -19.0776 H         4 M3L36       0.0000
     40 H         -22.3384  -61.9160  -17.5127 H         4 M3L36       0.0000
     41 H         -23.0803  -62.3473  -20.4277 H         4 M3L36       0.0000
     42 H         -21.4609  -62.2750  -19.7120 H         4 M3L36       0.0000
     43 H         -22.0625  -59.8655  -18.9886 H         4 M3L36       0.0000
     44 H         -23.4481  -60.0061  -20.0842 H         4 M3L36       0.0000
     45 H         -21.7906  -60.6991  -21.8944 H         4 M3L36       0.0000
     46 H         -20.5012  -60.2161  -20.7789 H         4 M3L36       0.0000
     47 H         -21.1984  -57.9461  -20.7360 H         4 M3L36       0.0000
     48 H         -22.7963  -58.3329  -21.3970 H         4 M3L36       0.0000
     49 H         -24.2830  -60.7763  -17.3250 H         4 M3L36       0.0000
     50 H         -19.2935  -58.9514  -22.6543 H         4 M3L36       0.0000
     51 H         -19.4418  -57.8697  -23.8350 H         4 M3L36       0.0000
     52 H         -19.4242  -57.3881  -22.3007 H         4 M3L36       0.0000
     53 H         -21.3492  -58.9454  -24.7957 H         4 M3L36       0.0000
     54 H         -21.3590  -60.1236  -23.7012 H         4 M3L36       0.0000
     55 H         -22.6805  -59.2397  -23.9429 H         4 M3L36       0.0000
     56 H         -21.5106  -56.2149  -22.5120 H         4 M3L36       0.0000
     57 H         -21.5350  -56.5918  -24.0752 H         4 M3L36       0.0000
     58 H         -22.8067  -56.9230  -23.1483 H         4 M3L36       0.0000
@<TRIPOS>BOND
     1    2    1 1
     2    7    1 1
     3    8    1 1
     4    9    1 1
     5    3    2 1
     6    5    2 1
     7    6    2 1
     8    4    3 2
     9   11   10 1
    10   14   10 1
    11   12   11 1
    12   15   11 1
    13   16   11 1
    14   13   12 2
    15   18   17 1
    16   22   17 1
    17   19   18 1
    18   21   18 1
    19   23   18 1
    20   20   19 2
    21   24   21 1
    22   25   21 1
    23   26   21 1
    24   28   27 1
    25   39   27 1
    26   29   28 1
    27   34   28 1
    28   40   28 1
    29   30   29 1
    30   41   29 1
    31   42   29 1
    32   31   30 1
    33   43   30 1
    34   44   30 1
    35   32   31 1
    36   45   31 1
    37   46   31 1
    38   33   32 1
    39   47   32 1
    40   48   32 1
    41   36   33 1
    42   37   33 1
    43   38   33 1
    44   35   34 2
    45   49   34 1
    46   50   36 1
    47   51   36 1
    48   52   36 1
    49   53   37 1
    50   54   37 1
    51   55   37 1
    52   56   38 1
    53   57   38 1
    54   58   38 1
    55   10    3 am
    56   17   12 am
    57   27   19 1 
@<TRIPOS>SUBSTRUCTURE
     1 GLY33       1 RESIDUE
     2 GLY34      10 RESIDUE
     3 VAL35      17 RESIDUE
     4 M3L36      27 GROUP
@<TRIPOS>SET

