#    Name: 3I61_1_CAVITY_N1_6.mol2
#    Modification time : Tue Mar 11 01:30:04 2014

@<TRIPOS>MOLECULE
3I61_1_CAVITY_N1_6.mol2
  100     0     7     0     0
SMALL
NO_CHARGES


@<TRIPOS>ATOM
      1 N          62.0440   39.2221   23.4715 N.2       2 ALA2        0.0000 
      2 N          60.9776   39.2291   21.6377 N.2       2 ALA2        0.0000 
      3 CA         60.7780   38.5865   22.9784 C.3       6 GLY6        0.0000 
      4 N          63.0230   38.6675   21.6732 N.2       2 ALA2        0.0000 
      5 CA         61.9566   38.6745   19.8394 C.3       6 GLY6        0.0000 
      6 N          61.7570   38.0319   21.1800 N.2       2 ALA2        0.0000 
      7 DU         61.5573   37.3894   22.5206 H         7 CUB7        0.0000 
      8 CZ         60.6906   38.0389   19.3462 C.ar      5 PHE5        0.0000 
      9 CA         60.4909   37.3963   20.6869 C.3       6 GLY6        0.0000 
     10 CZ         59.4246   37.4033   18.8531 C.ar      5 PHE5        0.0000 
     11 CZ         64.2016   38.7555   18.5342 C.ar      5 PHE5        0.0000 
     12 CA         64.0019   38.1129   19.8748 C.3       6 GLY6        0.0000 
     13 CZ         62.9356   38.1199   18.0410 C.ar      5 PHE5        0.0000 
     14 CA         62.7359   37.4773   19.3817 C.3       6 GLY6        0.0000 
     15 CA         62.5363   36.8348   20.7223 C.3       6 GLY6        0.0000 
     16 OG         61.4699   36.8417   18.8885 O.2       1 SER1        0.0000 
     17 OG         61.2703   36.1992   20.2291 O.2       1 SER1        0.0000 
     18 CZ         60.4035   36.8487   17.0547 C.ar      5 PHE5        0.0000 
     19 CZ         65.1805   38.2009   16.7359 C.ar      5 PHE5        0.0000 
     20 O          64.9809   37.5584   18.0765 O.2       2 ALA2        0.0000 
     21 CZ         63.9145   37.5653   16.2427 C.ar      5 PHE5        0.0000 
     22 CZ         63.7149   36.9228   17.5833 C.ar      5 PHE5        0.0000 
     23 CA         63.5152   36.2802   18.9239 C.3       6 GLY6        0.0000 
     24 CA         63.3156   35.6377   20.2646 C.3       6 GLY6        0.0000 
     25 CZ         62.4489   36.2872   17.0901 C.ar      5 PHE5        0.0000 
     26 OG         62.2492   35.6446   18.4308 O.2       1 SER1        0.0000 
     27 CZ         61.5821   36.9367   13.9157 C.ar      5 PHE5        0.0000 
     28 CZ         61.3825   36.2941   15.2564 C.ar      5 PHE5        0.0000 
     29 OG         61.1828   35.6516   16.5970 O.2       1 SER1        0.0000 
     30 OG         59.9168   35.0160   16.1038 O.2       1 SER1        0.0000 
     31 OG         58.6508   34.3804   15.6106 O.2       1 SER1        0.0000 
     32 CZ         65.9599   37.0038   16.2781 C.ar      5 PHE5        0.0000 
     33 CA         65.7602   36.3612   17.6187 C.3       6 GLY6        0.0000 
     34 CA         65.5606   35.7187   18.9594 C.3       6 GLY6        0.0000 
     35 CZ         64.6938   36.3682   15.7850 C.ar      5 PHE5        0.0000 
     36 CA         64.4942   35.7256   17.1256 C.3       6 GLY6        0.0000 
     37 CA         64.2946   35.0831   18.4662 C.3       6 GLY6        0.0000 
     38 N          64.0949   34.4405   19.8068 N.2       2 ALA2        0.0000 
     39 CZ         63.6275   36.3751   13.9512 C.ar      5 PHE5        0.0000 
     40 CZ         63.4278   35.7326   15.2918 C.ar      5 PHE5        0.0000 
     41 OG         63.2282   35.0900   16.6324 O.2       1 SER1        0.0000 
     42 OG         63.0285   34.4475   17.9730 O.2       1 SER1        0.0000 
     43 CZ         62.3614   35.7395   13.4580 C.ar      5 PHE5        0.0000 
     44 CZ         62.1618   35.0970   14.7986 C.ar      5 PHE5        0.0000 
     45 DU         61.0954   35.1039   12.9648 H         7 CUB7        0.0000 
     46 DU         60.8958   34.4614   14.3055 H         7 CUB7        0.0000 
     47 OG         60.6961   33.8188   15.6461 O.2       1 SER1        0.0000 
     48 CZ         66.9388   36.4492   14.4798 C.ar      5 PHE5        0.0000 
     49 CA         66.7392   35.8066   15.8204 C.3       6 GLY6        0.0000 
     50 CZ         65.6728   35.8136   13.9866 C.ar      5 PHE5        0.0000 
     51 DU         65.4732   35.1710   15.3272 H         7 CUB7        0.0000 
     52 CA         65.2735   34.5285   16.6679 C.3       6 GLY6        0.0000 
     53 O          65.0739   33.8859   18.0085 O.2       2 ALA2        0.0000 
     54 NZ         64.4068   35.1780   13.4934 N.2       4 LYS4        0.0000 
     55 DU         64.2071   34.5354   14.8341 H         7 CUB7        0.0000 
     56 CA         64.0075   33.8929   16.1747 C.3       6 GLY6        0.0000 
     57 N          63.8079   33.2503   17.5153 N.2       2 ALA2        0.0000 
     58 NZ         63.1408   34.5424   13.0003 N.2       4 LYS4        0.0000 
     59 NZ         62.9411   33.8998   14.3409 N.2       4 LYS4        0.0000 
     60 CA         62.7415   33.2573   15.6815 C.3       6 GLY6        0.0000 
     61 OD1        62.0744   34.5493   11.1665 O.3       3 ASP3        0.0000 
     62 NZ         61.8747   33.9068   12.5071 N.2       4 LYS4        0.0000 
     63 NZ         61.6751   33.2642   13.8477 N.2       4 LYS4        0.0000 
     64 CA         61.4755   32.6217   15.1884 C.3       6 GLY6        0.0000 
     65 NZ         60.6087   33.2712   12.0139 N.2       4 LYS4        0.0000 
     66 NZ         60.4091   32.6286   13.3546 N.2       4 LYS4        0.0000 
     67 CA         67.7181   35.2520   14.0220 C.3       6 GLY6        0.0000 
     68 CA         67.5185   34.6095   15.3627 C.3       6 GLY6        0.0000 
     69 NZ         66.4521   34.6164   13.5289 N.2       4 LYS4        0.0000 
     70 DU         66.2525   33.9739   14.8695 H         7 CUB7        0.0000 
     71 CA         66.0528   33.3313   16.2101 C.3       6 GLY6        0.0000 
     72 N          65.8532   32.6888   17.5507 N.2       2 ALA2        0.0000 
     73 NZ         65.1861   33.9808   13.0357 N.2       4 LYS4        0.0000 
     74 NZ         64.9865   33.3383   14.3763 N.2       4 LYS4        0.0000 
     75 NZ         64.7868   32.6957   15.7170 N.2       4 LYS4        0.0000 
     76 N          64.5872   32.0532   17.0576 N.2       2 ALA2        0.0000 
     77 NZ         64.1197   33.9878   11.2019 N.2       4 LYS4        0.0000 
     78 NZ         63.5208   32.0601   15.2238 N.2       4 LYS4        0.0000 
     79 CA         63.3212   31.4176   16.5644 C.3       6 GLY6        0.0000 
     80 NZ         62.2548   31.4245   14.7306 N.2       4 LYS4        0.0000 
     81 CA         62.0551   30.7820   16.0713 C.3       6 GLY6        0.0000 
     82 OG         68.2978   33.4124   14.9049 O.2       1 SER1        0.0000 
     83 O          68.0982   32.7698   16.2456 O.2       2 ALA2        0.0000 
     84 CA         67.4311   34.0619   11.7305 C.3       6 GLY6        0.0000 
     85 OG         67.2314   33.4193   13.0711 O.2       1 SER1        0.0000 
     86 OG         67.0318   32.7768   14.4118 O.2       1 SER1        0.0000 
     87 O          66.8322   32.1342   15.7524 O.2       2 ALA2        0.0000 
     88 CA         66.6325   31.4917   17.0930 C.3       6 GLY6        0.0000 
     89 NZ         66.1651   33.4263   11.2374 N.2       4 LYS4        0.0000 
     90 NZ         65.9654   32.7837   12.5780 N.2       4 LYS4        0.0000 
     91 NZ         65.7658   32.1412   13.9186 N.2       4 LYS4        0.0000 
     92 NZ         65.5661   31.4986   15.2592 N.2       4 LYS4        0.0000 
     93 CA         65.3665   30.8561   16.5999 C.3       6 GLY6        0.0000 
     94 OD1        68.8775   31.5727   15.7878 O.3       3 ASP3        0.0000 
     95 O          68.2104   32.8647   11.2728 O.2       2 ALA2        0.0000 
     96 OG         68.0108   32.2222   12.6134 O.2       1 SER1        0.0000 
     97 O          67.8111   31.5796   13.9540 O.2       2 ALA2        0.0000 
     98 O          66.9444   32.2291   10.7796 O.2       2 ALA2        0.0000 
     99 CA         66.7447   31.5866   12.1203 C.3       6 GLY6        0.0000 
    100 CA         66.5451   30.9440   13.4609 C.3       6 GLY6        0.0000 
@<TRIPOS>BOND
@<TRIPOS>SUBSTRUCTURE
     1 SER1       16 GROUP   
     2 ALA2        1 GROUP   
     3 ASP3       61 GROUP   
     4 LYS4       54 GROUP   
     5 PHE5        8 GROUP   
     6 GLY6        3 GROUP   
     7 CUB7        7 GROUP   
@<TRIPOS>SET

