#    Name: 3i61_ADP_1_INTS_M
#    Modification time : Tue Mar 25 15:55:46 2014

@<TRIPOS>MOLECULE
3i61_ADP_1_INTS_M
   67     0    15     0     0
SMALL
NO_CHARGES


@<TRIPOS>ATOM
      1 NZ         70.4960   29.6150   18.4460 N.4       3 LYC4        0.0000 
      2 NZ         69.2220   29.4030   17.2080 N.4      13 LYL4        0.0000 
      3 NZ         71.7700   29.8270   19.6840 N.4       8 LYP4        0.0000 
      4 NZ         68.0990   29.0575   16.2625 N.4       3 LYC4        0.0000 
      5 NZ         66.1320   27.7450   15.6800 N.4       8 LYP4        0.0000 
      6 N          68.3195   29.0470   18.1660 N.am      2 SEC2        0.0000 
      7 N          69.2220   29.4030   17.2080 N.am     12 SEL2        0.0000 
      8 N          67.4170   28.6910   19.1240 N.am      7 SEP2        0.0000 
      9 N          68.0990   29.0575   16.2625 N.am      2 SEC2        0.0000 
     10 N          66.9760   28.7120   15.3170 N.am      7 SEP2        0.0000 
     11 Zn         71.1800   30.7550   15.4175 Zn        4 ZIC7        0.0000 
     12 Zn         70.5890   31.2310   16.0860 Zn       14 ZIL7        0.0000 
     13 Zn         71.7710   30.2790   14.7490 Zn        9 ZIP7        0.0000 
     14 NZ         70.8245   30.6405   19.0875 N.4       3 LYC4        0.0000 
     15 NZ         69.8790   31.4540   18.4910 N.4      13 LYL4        0.0000 
     16 N          68.8505   32.5925   18.8675 N.am      2 SEC2        0.0000 
     17 N          69.8790   31.4540   18.4910 N.am     12 SEL2        0.0000 
     18 N          67.8220   33.7310   19.2440 N.am      7 SEP2        0.0000 
     19 N          70.1560   32.8930   18.4100 N.am      2 SEC2        0.0000 
     20 N          70.4330   34.3320   18.3290 N.am      7 SEP2        0.0000 
     21 N          68.4700   31.3625   19.3560 N.am      2 SEC2        0.0000 
     22 N          67.0610   31.2710   20.2210 N.am      7 SEP2        0.0000 
     23 N          70.8245   30.6405   19.0875 N.am      2 SEC2        0.0000 
     24 N          71.7700   29.8270   19.6840 N.am      7 SEP2        0.0000 
     25 N          70.0900   34.2710   15.5160 N.am      2 SEC2        0.0000 
     26 N          68.8270   33.5270   15.2940 N.am     12 SEL2        0.0000 
     27 N          71.3530   35.0150   15.7380 N.am      7 SEP2        0.0000 
     28 N          69.7300   33.6095   14.3000 N.am      2 SEC2        0.0000 
     29 N          70.6330   33.6920   13.3060 N.am      7 SEP2        0.0000 
     30 N          67.3615   30.0715   14.7640 N.am      2 SEC2        0.0000 
     31 N          67.7470   31.4310   14.2110 N.am     12 SEL2        0.0000 
     32 N          67.9920   32.6395   17.9880 N.am      2 SEC2        0.0000 
     33 N          68.1620   31.5480   16.7320 N.am     12 SEL2        0.0000 
     34 CA         65.7285   30.7775   17.3215 C.3       5 GLC5        0.0000 
     35 CA         65.2560   32.1000   15.8150 C.3      15 GLL5        0.0000 
     36 CA         66.2010   29.4550   18.8280 C.3      10 GLP5        0.0000 
     37 CA         62.4340   32.6190   16.8895 C.3       5 GLC5        0.0000 
     38 CA         63.9520   32.8540   15.5920 C.3      15 GLL5        0.0000 
     39 CA         60.9160   32.3840   18.1870 C.3      10 GLP5        0.0000 
     40 O          63.1560   32.2340   12.7840 O.2       1 ALC1        0.0000 
     41 O          62.6670   33.2280   13.5660 O.2      11 ALL1        0.0000 
     42 O          63.6450   31.2400   12.0020 O.2       6 ALP1        0.0000 
     43 CA         62.3600   36.9695   15.8525 C.3       5 GLC5        0.0000 
     44 CA         63.3820   35.0710   15.9730 C.3      15 GLL5        0.0000 
     45 CA         61.3380   38.8680   15.7320 C.3      10 GLP5        0.0000 
     46 CA         62.1490   33.7275   17.0800 C.3       5 GLC5        0.0000 
     47 N          66.3980   38.2145   18.0895 N.am      2 SEC2        0.0000 
     48 N          65.0800   37.8920   17.5490 N.am     12 SEL2        0.0000 
     49 N          67.7160   38.5370   18.6300 N.am      7 SEP2        0.0000 
     50 CA         62.2230   39.9595   19.0225 C.3       5 GLC5        0.0000 
     51 CA         63.3910   38.6330   19.3890 C.3      15 GLL5        0.0000 
     52 CA         61.0550   41.2860   18.6560 C.3      10 GLP5        0.0000 
     53 O          63.4560   40.4600   20.8635 O.2       1 ALC1        0.0000 
     54 O          64.0880   39.6620   19.9100 O.2      11 ALL1        0.0000 
     55 O          62.8240   41.2580   21.8170 O.2       6 ALP1        0.0000 
     56 O          65.5655   39.8305   20.0610 O.2       1 ALC1        0.0000 
     57 O          67.0430   39.9990   20.2120 O.2       6 ALP1        0.0000 
     58 CA         61.2640   39.2670   18.9920 C.3       5 GLC5        0.0000 
     59 CA         61.4730   37.2480   19.3280 C.3      15 GLL5        0.0000 
     60 CA         59.8885   38.5730   20.0460 C.3       5 GLC5        0.0000 
     61 CA         58.3040   39.8980   20.7640 C.3      10 GLP5        0.0000 
     62 N          61.2485   35.1270   18.2920 N.am      2 SEC2        0.0000 
     63 N          61.9320   36.4940   18.3040 N.am     12 SEL2        0.0000 
     64 N          60.5650   33.7600   18.2800 N.am      7 SEP2        0.0000 
     65 CA         64.5673   37.5385   20.2335 C.3       5 GLC5        0.0000 
     66 CA         63.9500   37.8570   18.2710 C.3      15 GLL5        0.0000 
     67 CA         65.4640   36.8320   21.6370 C.3      10 GLP5        0.0000 
@<TRIPOS>BOND
@<TRIPOS>SUBSTRUCTURE
     1 ALC1       40 GROUP        1 X    ALC  0     ROOT ALC X 1
     2 SEC2        6 GROUP        1 X    SEC  0     **** SEC X 2
     3 LYC4        1 GROUP        1 X    LYC  0     **** LYC X 4
     4 ZIC7       11 GROUP        1 X    ZIC  0     **** ZIC X 5
     5 GLC5       34 GROUP        1 X    GLC  0     **** GLC X 6
     6 ALP1       42 GROUP        1 Y    ALP  0     ROOT ALP Y 8
     7 SEP2        8 GROUP        1 Y    SEP  0     **** SEP Y 9
     8 LYP4        3 GROUP        1 Y    LYP  0     **** LYP Y 11
     9 ZIP7       13 GROUP        1 Y    ZIP  0     **** ZIP Y 12
    10 GLP5       36 GROUP        1 Y    GLP  0     **** GLP Y 13
    11 ALL1       41 GROUP        1 Z    ALL  0     ROOT ALL Z 15
    12 SEL2        7 GROUP        1 Z    SEL  0     **** SEL Z 16
    13 LYL4        2 GROUP        1 Z    LYL  0     **** LYL Z 18
    14 ZIL7       12 GROUP        1 Z    ZIL  0     **** ZIL Z 19
    15 GLL5       35 GROUP        1 Z    GLL  0     **** GLL Z 20
@<TRIPOS>SET

