#    Name: 3i61_ADP_1_ligand
#    Modification time : Tue Mar 25 15:55:46 2014

@<TRIPOS>MOLECULE
3i61_ADP_1_ligand
   39    41     1     0     0
SMALL
NO_CHARGES


@<TRIPOS>ATOM
      1 PB         69.5760   30.8710   17.1310 P.3       1 ADP1000     0.0000 
      2 O1B        69.2220   29.4030   17.2080 O.co2     1 ADP1000     0.0000 
      3 O2B        70.5890   31.2310   16.0860 O.co2     1 ADP1000     0.0000 
      4 O3B        69.8790   31.4540   18.4910 O.co2     1 ADP1000     0.0000 
      5 PA         67.8560   32.3700   15.3880 P.3       1 ADP1000     0.0000 
      6 O1A        68.8270   33.5270   15.2940 O.co2     1 ADP1000     0.0000 
      7 O2A        67.7470   31.4310   14.2110 O.co2     1 ADP1000     0.0000 
      8 O3A        68.1620   31.5480   16.7320 O.3       1 ADP1000     0.0000 
      9 O5'        66.3910   32.9650   15.6910 O.3       1 ADP1000     0.0000 
     10 C5'        65.2560   32.1000   15.8150 C.3       1 ADP1000     0.0000 
     11 C4'        63.9520   32.8540   15.5920 C.3       1 ADP1000     0.0000 
     12 O4'        63.7970   33.8620   16.5950 O.3       1 ADP1000     0.0000 
     13 C3'        63.8890   33.5500   14.2380 C.3       1 ADP1000     0.0000 
     14 O3'        62.6670   33.2280   13.5660 O.3       1 ADP1000     0.0000 
     15 C2'        63.9490   35.0300   14.5660 C.3       1 ADP1000     0.0000 
     16 O2'        63.1620   35.8380   13.6870 O.3       1 ADP1000     0.0000 
     17 C1'        63.3820   35.0710   15.9730 C.3       1 ADP1000     0.0000 
     18 N9         63.8470   36.2230   16.7650 N.pl3     1 ADP1000     0.0000 
     19 C8         65.0100   36.8930   16.6460 C.2       1 ADP1000     0.0000 
     20 N7         65.0800   37.8920   17.5490 N.2       1 ADP1000     0.0000 
     21 C5         63.9500   37.8570   18.2710 C.ar      1 ADP1000     0.0000 
     22 C6         63.3910   38.6330   19.3890 C.ar      1 ADP1000     0.0000 
     23 N6         64.0880   39.6620   19.9100 N.pl3     1 ADP1000     0.0000 
     24 N1         62.1730   38.2780   19.8560 N.ar      1 ADP1000     0.0000 
     25 C2         61.4730   37.2480   19.3280 C.ar      1 ADP1000     0.0000 
     26 N3         61.9320   36.4940   18.3040 N.ar      1 ADP1000     0.0000 
     27 C4         63.1380   36.7560   17.7500 C.ar      1 ADP1000     0.0000 
     28 H          65.2104   31.6372   16.8157 H         1 ADP1000     0.0000 
     29 H          65.2972   31.2750   15.0833 H         1 ADP1000     0.0000 
     30 H          63.1297   32.1489   15.6444 H         1 ADP1000     0.0000 
     31 H          64.7552   33.2882   13.6855 H         1 ADP1000     0.0000 
     32 H          64.9703   35.3217   14.6204 H         1 ADP1000     0.0000 
     33 H          62.3003   35.0864   15.8918 H         1 ADP1000     0.0000 
     34 H          65.7105   36.6831   15.9919 H         1 ADP1000     0.0000 
     35 H          65.0841   39.5893   19.8591 H         1 ADP1000     0.0000 
     36 H          63.5471   40.4066   20.3011 H         1 ADP1000     0.0000 
     37 H          60.5197   37.0216   19.7366 H         1 ADP1000     0.0000 
     38 H          62.9034   32.4832   12.9420 H         1 ADP1000     0.0000 
     39 H          62.6124   35.1887   13.1613 H         1 ADP1000     0.0000 
@<TRIPOS>BOND
     1    2    1 ar   
     2    3    1 ar   
     3    4    1 ar   
     4    8    1 1    
     5    6    5 ar   
     6    7    5 ar   
     7    8    5 1    
     8    9    5 1    
     9   10    9 1    
    10   11   10 1    
    11   28   10 1    
    12   29   10 1    
    13   12   11 1    
    14   13   11 1    
    15   30   11 1    
    16   17   12 1    
    17   14   13 1    
    18   15   13 1    
    19   31   13 1    
    20   38   14 1    
    21   16   15 1    
    22   17   15 1    
    23   32   15 1    
    24   39   16 1    
    25   18   17 1    
    26   33   17 1    
    27   19   18 1    
    28   27   18 1    
    29   20   19 2    
    30   34   19 1    
    31   21   20 1    
    32   22   21 ar   
    33   27   21 ar   
    34   23   22 1    
    35   24   22 ar   
    36   35   23 1    
    37   36   23 1    
    38   25   24 ar   
    39   26   25 ar   
    40   37   25 1    
    41   27   26 ar   
@<TRIPOS>SUBSTRUCTURE
     1 ADP1000     1 GROUP   
@<TRIPOS>SET

