#    Name: 2ym6_YM6_1_INTS_M
#    Modification time : Tue Mar 25 09:29:47 2014

@<TRIPOS>MOLECULE
2ym6_YM6_1_INTS_M
   63     0    12     0     0
SMALL
NO_CHARGES


@<TRIPOS>ATOM
      1 CA         17.2230   -0.4045    7.4950 C.3       4 GLC5        0.0000 
      2 CA         17.7470    0.5970    8.8490 C.3      12 GLL5        0.0000 
      3 CA         16.6990   -1.4060    6.1410 C.3       8 GLP5        0.0000 
      4 CA         17.7795    2.7070    9.4615 C.3       4 GLC5        0.0000 
      5 CA         17.8120    4.8170   10.0740 C.3       8 GLP5        0.0000 
      6 CA         17.0360    1.2635   10.8210 C.3       4 GLC5        0.0000 
      7 CA         16.3250    1.9300   12.7930 C.3       8 GLP5        0.0000 
      8 N          16.7960    2.8260    8.3360 N.am      2 SEC2        0.0000 
      9 N          16.6470    1.3280    8.8310 N.am     10 SEL2        0.0000 
     10 N          16.9450    4.3240    7.8410 N.am      6 SEP2        0.0000 
     11 CA         16.1430   -0.2065    7.8590 C.3       4 GLC5        0.0000 
     12 CA         15.5870    0.9930    9.5770 C.3      12 GLL5        0.0000 
     13 CA         14.3445    0.6050    8.1095 C.3       4 GLC5        0.0000 
     14 CA         13.1020    0.2170    6.6420 C.3       8 GLP5        0.0000 
     15 CA         16.6995    2.9050    9.8255 C.3       4 GLC5        0.0000 
     16 CA         17.2620   -2.1600    8.7785 C.3       4 GLC5        0.0000 
     17 CA         16.8280   -0.8470   10.4280 C.3      12 GLL5        0.0000 
     18 CA         17.6960   -3.4730    7.1290 C.3       8 GLP5        0.0000 
     19 OD1        19.7420   -3.0020   14.9080 O.co2     3 ASC3        0.0000 
     20 OD1        18.4180   -3.2790   14.9140 O.co2    11 ASL3        0.0000 
     21 OD1        21.0660   -2.7250   14.9020 O.co2     7 ASP3        0.0000 
     22 O          19.7420   -3.0020   14.9080 O.2       1 ALC1        0.0000 
     23 O          18.4180   -3.2790   14.9140 O.2       9 ALL1        0.0000 
     24 O          21.0660   -2.7250   14.9020 O.2       5 ALP1        0.0000 
     25 O          18.3965   -2.2735   16.0990 O.2       1 ALC1        0.0000 
     26 O          18.3750   -1.2680   17.2840 O.2       5 ALP1        0.0000 
     27 CA         10.6455   -0.3880   11.3360 C.3       4 GLC5        0.0000 
     28 CA         12.4990   -0.7880   12.3870 C.3      12 GLL5        0.0000 
     29 CA          8.7920    0.0120   10.2850 C.3       8 GLP5        0.0000 
     30 CA         12.9700    0.6430   13.8215 C.3       4 GLC5        0.0000 
     31 CA         13.4410    2.0740   15.2560 C.3       8 GLP5        0.0000 
     32 CA         13.3465   -2.8895   11.0105 C.3       4 GLC5        0.0000 
     33 CA         13.7990   -1.0460   11.9520 C.3      12 GLL5        0.0000 
     34 CA         12.8940   -4.7330   10.0690 C.3       8 GLP5        0.0000 
     35 CA         11.7015    2.7650   11.3695 C.3       4 GLC5        0.0000 
     36 CA         12.3600    1.0920   11.0600 C.3      12 GLL5        0.0000 
     37 CA         11.0430    4.4380   11.6790 C.3       8 GLP5        0.0000 
     38 CA         10.8620    1.5605    9.9890 C.3       4 GLC5        0.0000 
     39 CA          9.3640    2.0290    8.9180 C.3       8 GLP5        0.0000 
     40 CA         12.9005    1.5830   13.1580 C.3       4 GLC5        0.0000 
     41 CA         18.2040   -0.6455   14.0345 C.3       4 GLC5        0.0000 
     42 CA         18.2920   -2.5410   13.6460 C.3      12 GLL5        0.0000 
     43 CA         18.1160    1.2500   14.4230 C.3       8 GLP5        0.0000 
     44 CA         18.0155   -3.0860    9.1255 C.3       4 GLC5        0.0000 
     45 CA         18.3350   -2.6990   11.1220 C.3      12 GLL5        0.0000 
     46 O          13.8425    2.7300    9.1045 O.2       1 ALC1        0.0000 
     47 O          14.3950    1.5750    9.7210 O.2       9 ALL1        0.0000 
     48 O          13.2900    3.8850    8.4880 O.2       5 ALP1        0.0000 
     49 CA         13.3745    0.5520    8.6120 C.3       4 GLC5        0.0000 
     50 CA         13.6470    0.8870   10.5820 C.3      12 GLL5        0.0000 
     51 CA         14.2705   -1.7225    9.4240 C.3       4 GLC5        0.0000 
     52 CA         15.6230   -0.1520   10.3620 C.3      12 GLL5        0.0000 
     53 CA         13.5330   -3.2730    8.1510 C.3       8 GLP5        0.0000 
     54 CA         16.2707    0.8584   11.4959 C.3       4 GLC5        0.0000 
     55 CA         15.2105    0.6555   12.1425 C.3       4 GLC5        0.0000 
     56 CA         14.3930   -0.1920   11.0320 C.3      12 GLL5        0.0000 
     57 CA         14.6642    1.4598   11.8070 C.3       4 GLC5        0.0000 
     58 CA         16.8555   -5.0465   11.0660 C.3       4 GLC5        0.0000 
     59 CA         15.9270   -3.0090   11.3110 C.3      12 GLL5        0.0000 
     60 CA         17.6920   -6.7120   10.1660 C.3       8 GLP5        0.0000 
     61 CA         14.4565   -4.0570   11.0175 C.3       4 GLC5        0.0000 
     62 CA         16.1110   -3.7530   12.6210 C.3      12 GLL5        0.0000 
     63 CA         18.0373   -4.9027   10.9722 C.3       4 GLC5        0.0000 
@<TRIPOS>BOND
@<TRIPOS>SUBSTRUCTURE
     1 ALC1       22 GROUP        1 X    ALC  0     ROOT ALC X 1
     2 SEC2        8 GROUP        1 X    SEC  0     **** SEC X 2
     3 ASC3       19 GROUP        1 X    ASC  0     **** ASC X 3
     4 GLC5        1 GROUP        1 X    GLC  0     **** GLC X 6
     5 ALP1       24 GROUP        1 Y    ALP  0     ROOT ALP Y 8
     6 SEP2       10 GROUP        1 Y    SEP  0     **** SEP Y 9
     7 ASP3       21 GROUP        1 Y    ASP  0     **** ASP Y 10
     8 GLP5        3 GROUP        1 Y    GLP  0     **** GLP Y 13
     9 ALL1       23 GROUP        1 Z    ALL  0     ROOT ALL Z 15
    10 SEL2        9 GROUP        1 Z    SEL  0     **** SEL Z 16
    11 ASL3       20 GROUP        1 Z    ASL  0     **** ASL Z 17
    12 GLL5        2 GROUP        1 Z    GLL  0     **** GLL Z 20
@<TRIPOS>SET

