#    Name: 2ym6_YM6_1_ligand
#    Modification time : Tue Mar 25 09:29:47 2014

@<TRIPOS>MOLECULE
2ym6_YM6_1_ligand
   38    41     1     0     0
SMALL
NO_CHARGES


@<TRIPOS>ATOM
      1 N1         17.8290   -0.4760    9.6120 N.ar      1 YM61271     0.0000 
      2 C2         17.7470    0.5970    8.8490 C.ar      1 YM61271     0.0000 
      3 N3         16.6470    1.3280    8.8310 N.ar      1 YM61271     0.0000 
      4 C4         15.5870    0.9930    9.5770 C.ar      1 YM61271     0.0000 
      5 C5         15.6230   -0.1520   10.3620 C.ar      1 YM61271     0.0000 
      6 C6         16.8280   -0.8470   10.4280 C.ar      1 YM61271     0.0000 
      7 NAA        18.4180   -3.2790   14.9140 N.4       1 YM61271     0.0000 
      8 CAB        12.4990   -0.7880   12.3870 C.ar      1 YM61271     0.0000 
      9 CAD        13.7990   -1.0460   11.9520 C.ar      1 YM61271     0.0000 
     10 CAE        12.3600    1.0920   11.0600 C.ar      1 YM61271     0.0000 
     11 CAF        18.2920   -2.5410   13.6460 C.3       1 YM61271     0.0000 
     12 CAG        16.1110   -3.7530   12.6210 C.3       1 YM61271     0.0000 
     13 CAH        15.9270   -3.0090   11.3110 C.3       1 YM61271     0.0000 
     14 CAI        18.3350   -2.6990   11.1220 C.3       1 YM61271     0.0000 
     15 NAJ        11.8250    0.2600   11.9410 N.ar      1 YM61271     0.0000 
     16 NAM        14.3950    1.5750    9.7210 N.pl3     1 YM61271     0.0000 
     17 OAN        17.3590   -4.4590   12.6070 O.3       1 YM61271     0.0000 
     18 CAP        13.6470    0.8870   10.5820 C.ar      1 YM61271     0.0000 
     19 CAQ        14.3930   -0.1920   11.0320 C.ar      1 YM61271     0.0000 
     20 CAT        18.4300   -3.4880   12.4350 C.3       1 YM61271     0.0000 
     21 NAU        17.0220   -2.0470   11.1080 N.3       1 YM61271     0.0000 
     22 H          18.5685    0.8749    8.2463 H         1 YM61271     0.0000 
     23 H          12.0777   -1.4523   13.0773 H         1 YM61271     0.0000 
     24 H          14.3086   -1.8589   12.3097 H         1 YM61271     0.0000 
     25 H          11.8307    1.9195   10.7037 H         1 YM61271     0.0000 
     26 H          19.0680   -1.7731   13.5643 H         1 YM61271     0.0000 
     27 H          17.3174   -2.0469   13.5789 H         1 YM61271     0.0000 
     28 H          15.2638   -4.4379   12.7455 H         1 YM61271     0.0000 
     29 H          16.0731   -3.0210   13.4366 H         1 YM61271     0.0000 
     30 H          14.9624   -2.4921   11.3347 H         1 YM61271     0.0000 
     31 H          15.9015   -3.7383   10.4951 H         1 YM61271     0.0000 
     32 H          18.4369   -3.3907   10.2996 H         1 YM61271     0.0000 
     33 H          19.1328   -1.9722   11.1017 H         1 YM61271     0.0000 
     34 H          14.1107    2.3945    9.2573 H         1 YM61271     0.0000 
     35 H          19.3878   -3.9606   12.5089 H         1 YM61271     0.0000 
     36 H          17.7169   -3.9865   15.0032 H         1 YM61271     0.0000 
     37 H          19.3051   -3.7339   14.9924 H         1 YM61271     0.0000 
     38 H          18.3273   -2.6750   15.7059 H         1 YM61271     0.0000 
@<TRIPOS>BOND
     1    2    1 ar   
     2    6    1 ar   
     3    3    2 ar   
     4   22    2 1    
     5    4    3 ar   
     6    5    4 ar   
     7   16    4 1    
     8    6    5 ar   
     9   19    5 1    
    10   21    6 1    
    11   11    7 1    
    12   36    7 1    
    13   37    7 1    
    14   38    7 1    
    15    9    8 ar   
    16   15    8 ar   
    17   23    8 1    
    18   19    9 ar   
    19   24    9 1    
    20   15   10 ar   
    21   18   10 ar   
    22   25   10 1    
    23   20   11 1    
    24   26   11 1    
    25   27   11 1    
    26   13   12 1    
    27   17   12 1    
    28   28   12 1    
    29   29   12 1    
    30   21   13 1    
    31   30   13 1    
    32   31   13 1    
    33   20   14 1    
    34   21   14 1    
    35   32   14 1    
    36   33   14 1    
    37   18   16 1    
    38   34   16 1    
    39   20   17 1    
    40   19   18 ar   
    41   35   20 1    
@<TRIPOS>SUBSTRUCTURE
     1 YM61271     1 GROUP   
@<TRIPOS>SET

