#    Name: 3l0j_HC9_1_INTS_M
#    Modification time : Mon Mar 24 20:45:03 2014

@<TRIPOS>MOLECULE
3l0j_HC9_1_INTS_M
   91     0     6     0     0
SMALL
NO_CHARGES


@<TRIPOS>ATOM
      1 CA        -22.3890   -1.4980  -22.3185 C.3       2 GLC5        0.0000 
      2 CA        -24.1390   -0.5470  -22.8010 C.3       6 GLL5        0.0000 
      3 CA        -20.6390   -2.4490  -21.8360 C.3       4 GLP5        0.0000 
      4 O         -21.9575    2.9825  -24.7930 O.2       1 ALC1        0.0000 
      5 O         -22.9790    2.9470  -23.7220 O.2       5 ALL1        0.0000 
      6 O         -20.9360    3.0180  -25.8640 O.2       3 ALP1        0.0000 
      7 CA        -22.7385    1.7595  -21.0910 C.3       2 GLC5        0.0000 
      8 CA        -23.7700    0.9370  -22.7090 C.3       6 GLL5        0.0000 
      9 CA        -21.7070    2.5820  -19.4730 C.3       4 GLP5        0.0000 
     10 CA        -23.0410   -3.4465  -28.0395 C.3       2 GLC5        0.0000 
     11 CA        -23.2850   -2.7310  -26.1780 C.3       6 GLL5        0.0000 
     12 CA        -22.7970   -4.1620  -29.9010 C.3       4 GLP5        0.0000 
     13 CA        -21.3595   -3.6520  -26.5330 C.3       2 GLC5        0.0000 
     14 CA        -19.4340   -4.5730  -26.8880 C.3       4 GLP5        0.0000 
     15 CA        -22.6630   -5.2780  -24.7020 C.3       2 GLC5        0.0000 
     16 CA        -24.4800   -4.7720  -25.1950 C.3       6 GLL5        0.0000 
     17 CA        -20.8460   -5.7840  -24.2090 C.3       4 GLP5        0.0000 
     18 CA        -23.5345   -4.9490  -28.1300 C.3       2 GLC5        0.0000 
     19 CA        -24.2720   -5.7360  -26.3590 C.3       6 GLL5        0.0000 
     20 CA        -25.6840   -5.8330  -27.9380 C.3       2 GLC5        0.0000 
     21 CA        -27.0960   -5.9300  -29.5170 C.3       4 GLP5        0.0000 
     22 CA        -24.9895   -8.4595  -27.1345 C.3       2 GLC5        0.0000 
     23 CA        -24.7310   -7.0840  -25.8000 C.3       6 GLL5        0.0000 
     24 CA        -25.2480   -9.8350  -28.4690 C.3       4 GLP5        0.0000 
     25 CA        -28.9680   -4.8150  -24.4055 C.3       2 GLC5        0.0000 
     26 CA        -27.0290   -5.0710  -25.0850 C.3       6 GLL5        0.0000 
     27 CA        -30.9070   -4.5590  -23.7260 C.3       4 GLP5        0.0000 
     28 CA        -27.4685   -5.0565  -26.9255 C.3       2 GLC5        0.0000 
     29 CA        -27.9080   -5.0420  -28.7660 C.3       4 GLP5        0.0000 
     30 CA        -28.3705   -6.3105  -25.5870 C.3       2 GLC5        0.0000 
     31 CA        -29.7120   -7.5500  -26.0890 C.3       4 GLP5        0.0000 
     32 CA        -27.2420    0.6770  -23.4325 C.3       2 GLC5        0.0000 
     33 CA        -26.1650   -0.5550  -24.3210 C.3       6 GLL5        0.0000 
     34 CA        -28.3190    1.9090  -22.5440 C.3       4 GLP5        0.0000 
     35 CA        -27.8565   -1.6235  -23.4740 C.3       2 GLC5        0.0000 
     36 CA        -29.5480   -2.6920  -22.6270 C.3       4 GLP5        0.0000 
     37 CA        -27.6250   -8.1270  -25.4510 C.3       2 GLC5        0.0000 
     38 CA        -26.3250   -7.8970  -23.9760 C.3       6 GLL5        0.0000 
     39 CA        -28.9250   -8.3570  -26.9260 C.3       4 GLP5        0.0000 
     40 CA        -28.7155   -7.9650  -23.8145 C.3       2 GLC5        0.0000 
     41 CA        -26.9180   -7.7820  -22.5550 C.3       6 GLL5        0.0000 
     42 CA        -30.5130   -8.1480  -25.0740 C.3       4 GLP5        0.0000 
     43 CA        -26.5065   -7.5280  -20.4890 C.3       2 GLC5        0.0000 
     44 CA        -26.0950   -7.2740  -18.4230 C.3       4 GLP5        0.0000 
     45 CA        -28.7895   -7.7530  -21.6790 C.3       2 GLC5        0.0000 
     46 CA        -30.6610   -7.7240  -20.8030 C.3       4 GLP5        0.0000 
     47 CA        -25.4780   -9.5640  -26.3405 C.3       2 GLC5        0.0000 
     48 CA        -25.7080   -9.2930  -24.2120 C.3       6 GLL5        0.0000 
     49 CA        -27.3115   -9.5155  -25.4730 C.3       2 GLC5        0.0000 
     50 CA        -28.9150   -9.7380  -26.7340 C.3       4 GLP5        0.0000 
     51 CA        -24.4150   -9.7285  -21.1100 C.3       2 GLC5        0.0000 
     52 CA        -24.6070   -9.6990  -23.2320 C.3       6 GLL5        0.0000 
     53 CA        -24.2230   -9.7580  -18.9880 C.3       4 GLP5        0.0000 
     54 CA        -21.9880   -9.3230  -24.5545 C.3       2 GLC5        0.0000 
     55 CA        -23.6740  -10.6650  -23.9420 C.3       6 GLL5        0.0000 
     56 CA        -20.3020   -7.9810  -25.1670 C.3       4 GLP5        0.0000 
     57 CA        -21.2600  -14.0310  -24.3860 C.3       2 GLC5        0.0000 
     58 CA        -22.0010  -12.4770  -23.8580 C.3       6 GLL5        0.0000 
     59 CA        -20.5190  -15.5850  -24.9140 C.3       4 GLP5        0.0000 
     60 CA        -21.1000   -9.3270  -23.6285 C.3       2 GLC5        0.0000 
     61 CA        -21.8980  -10.6730  -22.0900 C.3       6 GLL5        0.0000 
     62 CA        -20.8025   -9.2290  -21.4135 C.3       2 GLC5        0.0000 
     63 CA        -19.7070   -7.7850  -20.7370 C.3       4 GLP5        0.0000 
     64 CA        -23.0605  -10.2155  -20.5390 C.3       2 GLC5        0.0000 
     65 CA        -24.7417    0.1020  -21.0520 C.3       2 GLC5        0.0000 
     66 CA        -25.5290    0.0090  -19.3490 C.3       4 GLP5        0.0000 
     67 CA        -24.5990    2.5137  -25.3700 C.3       2 GLC5        0.0000 
     68 CA        -23.0090    1.5110  -23.9030 C.3       6 GLL5        0.0000 
     69 CA        -25.8790    3.7300  -26.1600 C.3       4 GLP5        0.0000 
     70 CA        -21.4460    0.4128  -25.0630 C.3       2 GLC5        0.0000 
     71 CA        -23.6290    1.0840  -25.2570 C.3       6 GLL5        0.0000 
     72 CA        -19.5730   -0.4720  -25.5460 C.3       4 GLP5        0.0000 
     73 CA        -21.4826   -1.1267  -25.7389 C.3       2 GLC5        0.0000 
     74 CA        -23.8210   -0.4420  -25.2370 C.3       6 GLL5        0.0000 
     75 CA        -26.2058   -3.9080  -21.3092 C.3       2 GLC5        0.0000 
     76 CA        -25.7510   -3.1500  -23.1980 C.3       6 GLL5        0.0000 
     77 CA        -26.7180   -3.9070  -19.5080 C.3       4 GLP5        0.0000 
     78 CA        -27.6208   -3.3005  -22.8687 C.3       2 GLC5        0.0000 
     79 CA        -25.6360   -4.6680  -23.0230 C.3       6 GLL5        0.0000 
     80 CA        -22.5198   -6.4615  -25.7782 C.3       2 GLC5        0.0000 
     81 CA        -20.5380   -6.5130  -25.4770 C.3       4 GLP5        0.0000 
     82 CA        -25.8852  -11.0485  -22.7665 C.3       2 GLC5        0.0000 
     83 CA        -26.6130  -12.6010  -21.8110 C.3       4 GLP5        0.0000 
     84 CA        -25.2494  -11.5617  -24.8205 C.3       2 GLC5        0.0000 
     85 CA        -26.0830  -13.0430  -25.8090 C.3       4 GLP5        0.0000 
     86 CA        -24.9273  -11.8447  -22.6418 C.3       2 GLC5        0.0000 
     87 CA        -22.3087  -12.5422  -20.9947 C.3       2 GLC5        0.0000 
     88 CA        -22.8090  -11.5120  -23.0030 C.3       6 GLL5        0.0000 
     89 CA        -22.2640  -13.9920  -19.4430 C.3       4 GLP5        0.0000 
     90 CA        -20.3668  -11.6654  -22.5741 C.3       2 GLC5        0.0000 
     91 CA        -18.5820  -11.9970  -22.3880 C.3       4 GLP5        0.0000 
@<TRIPOS>BOND
@<TRIPOS>SUBSTRUCTURE
     1 ALC1        4 GROUP        1 X    ALC  0     ROOT ALC X 1
     2 GLC5        1 GROUP        1 X    GLC  0     **** GLC X 6
     3 ALP1        6 GROUP        1 Y    ALP  0     ROOT ALP Y 8
     4 GLP5        3 GROUP        1 Y    GLP  0     **** GLP Y 13
     5 ALL1        5 GROUP        1 Z    ALL  0     ROOT ALL Z 15
     6 GLL5        2 GROUP        1 Z    GLL  0     **** GLL Z 20
@<TRIPOS>SET

