#    Name: 3l0j_HC9_1_ligand
#    Modification time : Mon Mar 24 20:45:03 2014

@<TRIPOS>MOLECULE
3l0j_HC9_1_ligand
   75    78     1     0     0
SMALL
NO_CHARGES


@<TRIPOS>ATOM
      1 C1        -24.1390   -0.5470  -22.8010 C.3       1 HC91        0.0000 
      2 O1        -22.9790    2.9470  -23.7220 O.3       1 HC91        0.0000 
      3 C2        -23.7700    0.9370  -22.7090 C.3       1 HC91        0.0000 
      4 O2        -26.7050  -10.3080  -24.1820 O.3       1 HC91        0.0000 
      5 C3        -23.0090    1.5110  -23.9030 C.3       1 HC91        0.0000 
      6 C4        -23.6290    1.0840  -25.2570 C.3       1 HC91        0.0000 
      7 C5        -23.8210   -0.4420  -25.2370 C.2       1 HC91        0.0000 
      8 C6        -23.1780   -1.2220  -26.1340 C.2       1 HC91        0.0000 
      9 C7        -23.2850   -2.7310  -26.1780 C.3       1 HC91        0.0000 
     10 C8        -24.5300   -3.2480  -25.4610 C.3       1 HC91        0.0000 
     11 C9        -24.6380   -2.5600  -24.0860 C.3       1 HC91        0.0000 
     12 C10       -24.7170   -1.0280  -24.1430 C.3       1 HC91        0.0000 
     13 C11       -25.7510   -3.1500  -23.1980 C.3       1 HC91        0.0000 
     14 C12       -25.6360   -4.6680  -23.0230 C.3       1 HC91        0.0000 
     15 C13       -25.6760   -5.3310  -24.4010 C.3       1 HC91        0.0000 
     16 C14       -24.4800   -4.7720  -25.1950 C.3       1 HC91        0.0000 
     17 C15       -24.2720   -5.7360  -26.3590 C.3       1 HC91        0.0000 
     18 C16       -24.7310   -7.0840  -25.8000 C.3       1 HC91        0.0000 
     19 C17       -25.2950   -6.8290  -24.3930 C.3       1 HC91        0.0000 
     20 C18       -27.0290   -5.0710  -25.0850 C.3       1 HC91        0.0000 
     21 C19       -26.1650   -0.5550  -24.3210 C.3       1 HC91        0.0000 
     22 C20       -26.3250   -7.8970  -23.9760 C.3       1 HC91        0.0000 
     23 C21       -26.9180   -7.7820  -22.5550 C.3       1 HC91        0.0000 
     24 C22       -25.7080   -9.2930  -24.2120 C.3       1 HC91        0.0000 
     25 C23       -24.6070   -9.6990  -23.2320 C.3       1 HC91        0.0000 
     26 C24       -23.6740  -10.6650  -23.9420 C.3       1 HC91        0.0000 
     27 C25       -22.8090  -11.5120  -23.0030 C.3       1 HC91        0.0000 
     28 C26       -22.0010  -12.4770  -23.8580 C.3       1 HC91        0.0000 
     29 C27       -21.8980  -10.6730  -22.0900 C.3       1 HC91        0.0000 
     30 H         -24.8717   -0.7822  -21.9981 H         1 HC91        0.0000 
     31 H         -23.2360   -1.1535  -22.5696 H         1 HC91        0.0000 
     32 H         -23.1652    1.0950  -21.7910 H         1 HC91        0.0000 
     33 H         -24.7010    1.5248  -22.5632 H         1 HC91        0.0000 
     34 H         -21.9924    1.1137  -23.8556 H         1 HC91        0.0000 
     35 H         -22.9581    1.3522  -26.0519 H         1 HC91        0.0000 
     36 H         -24.5820    1.5653  -25.3755 H         1 HC91        0.0000 
     37 H         -22.5520   -0.8195  -26.8702 H         1 HC91        0.0000 
     38 H         -22.3964   -3.1736  -25.7104 H         1 HC91        0.0000 
     39 H         -23.3129   -3.0645  -27.2231 H         1 HC91        0.0000 
     40 H         -25.4050   -3.0186  -26.0196 H         1 HC91        0.0000 
     41 H         -23.6682   -2.7967  -23.5421 H         1 HC91        0.0000 
     42 H         -26.7230   -2.9124  -23.6457 H         1 HC91        0.0000 
     43 H         -25.7084   -2.6704  -22.2132 H         1 HC91        0.0000 
     44 H         -26.4645   -5.0237  -22.4283 H         1 HC91        0.0000 
     45 H         -24.7000   -4.9026  -22.5377 H         1 HC91        0.0000 
     46 H         -23.5892   -4.9564  -24.4968 H         1 HC91        0.0000 
     47 H         -23.2429   -5.7838  -26.6086 H         1 HC91        0.0000 
     48 H         -24.8904   -5.4571  -27.1735 H         1 HC91        0.0000 
     49 H         -23.8932   -7.7511  -25.7321 H         1 HC91        0.0000 
     50 H         -25.5032   -7.4901  -26.4248 H         1 HC91        0.0000 
     51 H         -24.4015   -6.9175  -23.7189 H         1 HC91        0.0000 
     52 H         -27.1742   -7.8262  -24.6998 H         1 HC91        0.0000 
     53 H         -25.2463   -9.2796  -25.2210 H         1 HC91        0.0000 
     54 H         -25.0508  -10.1835  -22.3768 H         1 HC91        0.0000 
     55 H         -24.0592   -8.8217  -22.9266 H         1 HC91        0.0000 
     56 H         -23.0098  -10.0969  -24.6172 H         1 HC91        0.0000 
     57 H         -24.2701  -11.3420  -24.5793 H         1 HC91        0.0000 
     58 H         -23.4776  -12.1056  -22.3776 H         1 HC91        0.0000 
     59 H         -27.2001   -4.0937  -25.2103 H         1 HC91        0.0000 
     60 H         -27.0755   -5.4950  -25.9894 H         1 HC91        0.0000 
     61 H         -27.7915   -5.4359  -24.5507 H         1 HC91        0.0000 
     62 H         -26.2339    0.4426  -24.3094 H         1 HC91        0.0000 
     63 H         -26.5531   -0.8655  -25.1887 H         1 HC91        0.0000 
     64 H         -26.7599   -0.8984  -23.5942 H         1 HC91        0.0000 
     65 H         -26.2096   -7.8373  -21.8514 H         1 HC91        0.0000 
     66 H         -27.3967   -6.9142  -22.4214 H         1 HC91        0.0000 
     67 H         -27.5756   -8.5115  -22.3668 H         1 HC91        0.0000 
     68 H         -21.4061  -11.9947  -24.5010 H         1 HC91        0.0000 
     69 H         -21.4148  -13.0653  -23.3010 H         1 HC91        0.0000 
     70 H         -22.5905  -13.0776  -24.3981 H         1 HC91        0.0000 
     71 H         -21.3459  -11.2482  -21.4864 H         1 HC91        0.0000 
     72 H         -21.2636  -10.1074  -22.6169 H         1 HC91        0.0000 
     73 H         -22.4248  -10.0558  -21.5056 H         1 HC91        0.0000 
     74 H         -22.0712    3.2280  -24.0332 H         1 HC91        0.0000 
     75 H         -26.1276   -9.7306  -23.6046 H         1 HC91        0.0000 
@<TRIPOS>BOND
     1    3    1 1    
     2   12    1 1    
     3   30    1 1    
     4   31    1 1    
     5    5    2 1    
     6   74    2 1    
     7    5    3 1    
     8   32    3 1    
     9   33    3 1    
    10   24    4 1    
    11   75    4 1    
    12    6    5 1    
    13   34    5 1    
    14    7    6 1    
    15   35    6 1    
    16   36    6 1    
    17    8    7 2    
    18   12    7 1    
    19    9    8 1    
    20   37    8 1    
    21   10    9 1    
    22   38    9 1    
    23   39    9 1    
    24   11   10 1    
    25   16   10 1    
    26   40   10 1    
    27   12   11 1    
    28   13   11 1    
    29   41   11 1    
    30   21   12 1    
    31   14   13 1    
    32   42   13 1    
    33   43   13 1    
    34   15   14 1    
    35   44   14 1    
    36   45   14 1    
    37   16   15 1    
    38   19   15 1    
    39   20   15 1    
    40   17   16 1    
    41   46   16 1    
    42   18   17 1    
    43   47   17 1    
    44   48   17 1    
    45   19   18 1    
    46   49   18 1    
    47   50   18 1    
    48   22   19 1    
    49   51   19 1    
    50   59   20 1    
    51   60   20 1    
    52   61   20 1    
    53   62   21 1    
    54   63   21 1    
    55   64   21 1    
    56   23   22 1    
    57   24   22 1    
    58   52   22 1    
    59   65   23 1    
    60   66   23 1    
    61   67   23 1    
    62   25   24 1    
    63   53   24 1    
    64   26   25 1    
    65   54   25 1    
    66   55   25 1    
    67   27   26 1    
    68   56   26 1    
    69   57   26 1    
    70   28   27 1    
    71   29   27 1    
    72   58   27 1    
    73   68   28 1    
    74   69   28 1    
    75   70   28 1    
    76   71   29 1    
    77   72   29 1    
    78   73   29 1    
@<TRIPOS>SUBSTRUCTURE
     1 HC91        1 GROUP   
@<TRIPOS>SET

