#    Name: 4m87_NAD_1_INTS_M
#    Modification time : Tue Mar 25 11:56:10 2014

@<TRIPOS>MOLECULE
4m87_NAD_1_INTS_M
   96     0     9     0     0
SMALL
NO_CHARGES


@<TRIPOS>ATOM
      1 N          37.0150  -23.1005   -3.6820 N.am      2 SEC2        0.0000 
      2 N          36.2720  -23.9690   -4.5800 N.am      8 SEL2        0.0000 
      3 N          37.7580  -22.2320   -2.7840 N.am      5 SEP2        0.0000 
      4 N          37.2020  -27.0955   -6.3635 N.am      2 SEC2        0.0000 
      5 N          36.9880  -26.3980   -5.2720 N.am      8 SEL2        0.0000 
      6 N          37.4160  -27.7930   -7.4550 N.am      5 SEP2        0.0000 
      7 CA         34.6100  -23.9325   -2.8825 C.3       3 GLC5        0.0000 
      8 CA         33.5710  -25.0910   -4.1240 C.3       9 GLL5        0.0000 
      9 CA         35.6490  -22.7740   -1.6410 C.3       6 GLP5        0.0000 
     10 CA         30.8850  -26.0535   -4.0370 C.3       3 GLC5        0.0000 
     11 CA         32.4770  -25.2510   -5.1530 C.3       9 GLL5        0.0000 
     12 CA         29.2930  -26.8560   -2.9210 C.3       6 GLP5        0.0000 
     13 CA         29.3560  -25.6825   -5.5000 C.3       3 GLC5        0.0000 
     14 CA         30.6490  -24.1750   -5.9040 C.3       9 GLL5        0.0000 
     15 CA         28.0630  -27.1900   -5.0960 C.3       6 GLP5        0.0000 
     16 CA         24.9190  -22.1115   -8.1550 C.3       3 GLC5        0.0000 
     17 CA         26.3380  -21.9170   -6.4560 C.3       9 GLL5        0.0000 
     18 CA         23.5000  -22.3060   -9.8540 C.3       6 GLP5        0.0000 
     19 CA         24.9580  -22.9090   -5.6435 C.3       3 GLC5        0.0000 
     20 CA         23.5780  -23.9010   -4.8310 C.3       6 GLP5        0.0000 
     21 O          24.5510  -20.5495   -7.0480 O.2       1 ALC1        0.0000 
     22 O          25.5920  -20.8320   -6.1510 O.2       7 ALL1        0.0000 
     23 O          23.5100  -20.2670   -7.9450 O.2       4 ALP1        0.0000 
     24 N          24.3460  -23.0845   -7.4690 N.am      2 SEC2        0.0000 
     25 N          25.8520  -22.9150   -7.2260 N.am      8 SEL2        0.0000 
     26 N          22.8400  -23.2540   -7.7120 N.am      5 SEP2        0.0000 
     27 CA         26.9810  -22.5835   -8.5695 C.3       3 GLC5        0.0000 
     28 CA         26.5710  -24.0060   -7.5310 C.3       9 GLL5        0.0000 
     29 CA         27.3910  -21.1610   -9.6080 C.3       6 GLP5        0.0000 
     30 CA         25.0355  -23.1560   -8.6925 C.3       3 GLC5        0.0000 
     31 CA         25.0745  -23.9535   -6.1810 C.3       3 GLC5        0.0000 
     32 CA         26.6315  -25.7095   -6.6225 C.3       3 GLC5        0.0000 
     33 CA         26.6920  -27.4130   -5.7140 C.3       6 GLP5        0.0000 
     34 CA         28.4045  -22.7030   -8.2490 C.3       3 GLC5        0.0000 
     35 CA         28.4210  -23.2620   -6.3120 C.3       9 GLL5        0.0000 
     36 CA         28.3880  -22.1440  -10.1860 C.3       6 GLP5        0.0000 
     37 N          37.7320  -25.5380   -2.0485 N.am      2 SEC2        0.0000 
     38 N          36.3740  -25.7500   -2.8270 N.am      8 SEL2        0.0000 
     39 N          39.0900  -25.3260   -1.2700 N.am      5 SEP2        0.0000 
     40 N          38.1065  -26.2150   -1.0785 N.am      2 SEC2        0.0000 
     41 N          37.1230  -27.1040   -0.8870 N.am      8 SEL2        0.0000 
     42 N          37.1425  -29.4740   -3.6125 N.am      2 SEC2        0.0000 
     43 N          36.4450  -28.3080   -3.0730 N.am      8 SEL2        0.0000 
     44 N          37.8400  -30.6400   -4.1520 N.am      5 SEP2        0.0000 
     45 CA         32.4675  -30.1270    0.2960 C.3       3 GLC5        0.0000 
     46 CA         32.9860  -28.4870   -0.5750 C.3       9 GLL5        0.0000 
     47 CA         31.9490  -31.7670    1.1670 C.3       6 GLP5        0.0000 
     48 CA         30.8240  -27.0650   -1.4135 C.3       3 GLC5        0.0000 
     49 CA         32.3550  -27.2740    0.0940 C.3       9 GLL5        0.0000 
     50 CA         30.9835  -25.6660   -0.1395 C.3       3 GLC5        0.0000 
     51 CA         29.6120  -24.0580   -0.3730 C.3       6 GLP5        0.0000 
     52 N          30.6970  -27.4960    2.0115 N.am      2 SEC2        0.0000 
     53 N          31.0890  -27.6630    0.6340 N.am      8 SEL2        0.0000 
     54 N          30.3050  -27.3290    3.3890 N.am      5 SEP2        0.0000 
     55 O          30.2020  -28.7080    0.4235 O.2       1 ALC1        0.0000 
     56 O          31.0890  -27.6630    0.6340 O.2       7 ALL1        0.0000 
     57 O          29.3150  -29.7530    0.2130 O.2       4 ALP1        0.0000 
     58 CA         31.9490  -26.8060    2.9640 C.3       3 GLC5        0.0000 
     59 CA         33.2850  -26.9220    1.2280 C.3       9 GLL5        0.0000 
     60 CA         30.6130  -26.6900    4.7000 C.3       6 GLP5        0.0000 
     61 N          31.4560  -26.7755    2.8295 N.am      2 SEC2        0.0000 
     62 N          32.6070  -26.2220    2.2700 N.am      8 SEL2        0.0000 
     63 CA         35.3675  -29.4610    0.8720 C.3       3 GLC5        0.0000 
     64 CA         33.6590  -28.3320    1.6230 C.3       9 GLL5        0.0000 
     65 CA         37.0760  -30.5900    0.1210 C.3       6 GLP5        0.0000 
     66 CA         32.8040  -30.0495    1.3950 C.3       3 GLC5        0.0000 
     67 N          40.5290  -27.8180    3.3345 N.am      2 SEC2        0.0000 
     68 N          39.2740  -27.2200    3.3670 N.am      8 SEL2        0.0000 
     69 N          41.7840  -28.4160    3.3020 N.am      5 SEP2        0.0000 
     70 O          40.2105  -26.9395    1.2240 O.2       1 ALC1        0.0000 
     71 O          38.7970  -27.2690    1.1950 O.2       7 ALL1        0.0000 
     72 O          41.6240  -26.6100    1.2530 O.2       4 ALP1        0.0000 
     73 CA         35.9045  -29.9060    1.8335 C.3       3 GLC5        0.0000 
     74 CA         34.7330  -29.2220    3.5460 C.3       9 GLL5        0.0000 
     75 CA         33.3410  -30.4945    2.3565 C.3       3 GLC5        0.0000 
     76 CA         32.0182  -26.6670   -6.6402 C.3       3 GLC5        0.0000 
     77 CA         31.3660  -28.4200   -7.4700 C.3       6 GLP5        0.0000 
     78 CA         34.1540  -23.7505   -7.3115 C.3       3 GLC5        0.0000 
     79 CA         32.8640  -24.5770   -6.4680 C.3       9 GLL5        0.0000 
     80 CA         35.9670  -23.4530   -8.0720 C.3       6 GLP5        0.0000 
     81 CA         27.2070  -21.5745   -7.9005 C.3       3 GLC5        0.0000 
     82 CA         27.7080  -22.0590   -5.9300 C.3       9 GLL5        0.0000 
     83 CA         27.7612  -23.9633   -4.8710 C.3       3 GLC5        0.0000 
     84 CA         27.4580  -25.2660   -3.6210 C.3       6 GLP5        0.0000 
     85 CA         26.4815  -21.8570   -4.3415 C.3       3 GLC5        0.0000 
     86 CA         25.9400  -21.7260   -2.4900 C.3       6 GLP5        0.0000 
     87 CA         31.9112  -29.3938   -2.1030 C.3       3 GLC5        0.0000 
     88 CA         33.7590  -28.1460   -1.8350 C.3       9 GLL5        0.0000 
     89 CA         30.4500  -30.4710   -3.0010 C.3       6 GLP5        0.0000 
     90 CA         36.9460  -29.4990    1.6804 C.3       3 GLC5        0.0000 
     91 CA         36.0170  -27.9080    2.0670 C.3       9 GLL5        0.0000 
     92 CA         34.6713  -28.6020    5.6530 C.3       3 GLC5        0.0000 
     93 CA         35.8340  -29.4060    4.3680 C.3       9 GLL5        0.0000 
     94 CA         34.0590  -27.8900    7.3490 C.3       6 GLP5        0.0000 
     95 CA         36.3269  -31.0177    3.9813 C.3       3 GLC5        0.0000 
     96 CA         37.0660  -32.8660    4.0930 C.3       6 GLP5        0.0000 
@<TRIPOS>BOND
@<TRIPOS>SUBSTRUCTURE
     1 ALC1       21 GROUP        1 X    ALC  0     ROOT ALC X 1
     2 SEC2        1 GROUP        1 X    SEC  0     **** SEC X 2
     3 GLC5        7 GROUP        1 X    GLC  0     **** GLC X 6
     4 ALP1       23 GROUP        1 Y    ALP  0     ROOT ALP Y 8
     5 SEP2        3 GROUP        1 Y    SEP  0     **** SEP Y 9
     6 GLP5        9 GROUP        1 Y    GLP  0     **** GLP Y 13
     7 ALL1       22 GROUP        1 Z    ALL  0     ROOT ALL Z 15
     8 SEL2        2 GROUP        1 Z    SEL  0     **** SEL Z 16
     9 GLL5        8 GROUP        1 Z    GLL  0     **** GLL Z 20
@<TRIPOS>SET

