#    Name: 4m87_NAD_1_ligand
#    Modification time : Tue Mar 25 11:56:10 2014

@<TRIPOS>MOLECULE
4m87_NAD_1_ligand
   70    74     1     0     0
SMALL
NO_CHARGES


@<TRIPOS>ATOM
      1 PA         36.1670  -25.4760   -4.4080 P.3       1 NAD301      0.0000 
      2 O1A        36.2720  -23.9690   -4.5800 O.co2     1 NAD301      0.0000 
      3 O2A        36.9880  -26.3980   -5.2720 O.co2     1 NAD301      0.0000 
      4 O5B        34.6390  -25.9330   -4.5600 O.3       1 NAD301      0.0000 
      5 C5B        33.5710  -25.0910   -4.1240 C.3       1 NAD301      0.0000 
      6 C4B        32.4770  -25.2510   -5.1530 C.3       1 NAD301      0.0000 
      7 O4B        31.2340  -24.6750   -4.7150 O.3       1 NAD301      0.0000 
      8 C3B        32.8640  -24.5770   -6.4680 C.3       1 NAD301      0.0000 
      9 O3B        32.7830  -25.5200   -7.5490 O.3       1 NAD301      0.0000 
     10 C2B        31.8180  -23.5190   -6.6340 C.3       1 NAD301      0.0000 
     11 O2B        31.5610  -23.2340   -8.0110 O.3       1 NAD301      0.0000 
     12 C1B        30.6490  -24.1750   -5.9040 C.3       1 NAD301      0.0000 
     13 N9A        29.6010  -23.1710   -5.7240 N.pl3     1 NAD301      0.0000 
     14 C8A        29.6870  -22.0220   -5.0410 C.2       1 NAD301      0.0000 
     15 N7A        28.5390  -21.3380   -5.1520 N.2       1 NAD301      0.0000 
     16 C5A        27.7080  -22.0590   -5.9300 C.ar      1 NAD301      0.0000 
     17 C6A        26.3380  -21.9170   -6.4560 C.ar      1 NAD301      0.0000 
     18 N6A        25.5920  -20.8320   -6.1510 N.pl3     1 NAD301      0.0000 
     19 N1A        25.8520  -22.9150   -7.2260 N.ar      1 NAD301      0.0000 
     20 C2A        26.5710  -24.0060   -7.5310 C.ar      1 NAD301      0.0000 
     21 N3A        27.8200  -24.1860   -7.0900 N.ar      1 NAD301      0.0000 
     22 C4A        28.4210  -23.2620   -6.3120 C.ar      1 NAD301      0.0000 
     23 O3         36.3740  -25.7500   -2.8270 O.3       1 NAD301      0.0000 
     24 PN         36.2490  -27.1760   -2.1000 P.3       1 NAD301      0.0000 
     25 O1N        37.1230  -27.1040   -0.8870 O.co2     1 NAD301      0.0000 
     26 O2N        36.4450  -28.3080   -3.0730 O.co2     1 NAD301      0.0000 
     27 O5D        34.7130  -27.1120   -1.5860 O.3       1 NAD301      0.0000 
     28 C5D        33.7590  -28.1460   -1.8350 C.3       1 NAD301      0.0000 
     29 C4D        32.9860  -28.4870   -0.5750 C.3       1 NAD301      0.0000 
     30 O4D        33.8780  -29.0210    0.3940 O.3       1 NAD301      0.0000 
     31 C3D        32.3550  -27.2740    0.0940 C.3       1 NAD301      0.0000 
     32 O3D        31.0890  -27.6630    0.6340 O.3       1 NAD301      0.0000 
     33 C2D        33.2850  -26.9220    1.2280 C.3       1 NAD301      0.0000 
     34 O2D        32.6070  -26.2220    2.2700 O.3       1 NAD301      0.0000 
     35 C1D        33.6590  -28.3320    1.6230 C.3       1 NAD301      0.0000 
     36 N1N        34.8440  -28.4720    2.4400 N.pl3     1 NAD301      0.0000 
     37 C2N        36.0170  -27.9080    2.0670 C.ar      1 NAD301      0.0000 
     38 C3N        37.1450  -28.0680    2.8560 C.ar      1 NAD301      0.0000 
     39 C7N        38.4790  -27.4710    2.4780 C.2       1 NAD301      0.0000 
     40 O7N        39.2740  -27.2200    3.3670 O.2       1 NAD301      0.0000 
     41 N7N        38.7970  -27.2690    1.1950 N.am      1 NAD301      0.0000 
     42 C4N        37.0510  -28.8280    4.0180 C.ar      1 NAD301      0.0000 
     43 C5N        35.8340  -29.4060    4.3680 C.ar      1 NAD301      0.0000 
     44 C6N        34.7330  -29.2220    3.5460 C.ar      1 NAD301      0.0000 
     45 H          33.8644  -24.0502   -4.0926 H         1 NAD301      0.0000 
     46 H          33.1844  -25.3953   -3.1606 H         1 NAD301      0.0000 
     47 H          32.3464  -26.3107   -5.3630 H         1 NAD301      0.0000 
     48 H          33.8056  -24.1330   -6.3581 H         1 NAD301      0.0000 
     49 H          32.1182  -22.6702   -6.0605 H         1 NAD301      0.0000 
     50 H          30.3126  -24.9764   -6.5429 H         1 NAD301      0.0000 
     51 H          30.4708  -21.7250   -4.5358 H         1 NAD301      0.0000 
     52 H          25.7625  -20.4180   -5.2569 H         1 NAD301      0.0000 
     53 H          24.9357  -20.5395   -6.8466 H         1 NAD301      0.0000 
     54 H          26.1304  -24.7516   -8.1445 H         1 NAD301      0.0000 
     55 H          34.2474  -29.0672   -2.1925 H         1 NAD301      0.0000 
     56 H          33.0322  -27.8461   -2.6075 H         1 NAD301      0.0000 
     57 H          32.2111  -29.1911   -0.8034 H         1 NAD301      0.0000 
     58 H          32.3023  -26.4873   -0.5863 H         1 NAD301      0.0000 
     59 H          34.1284  -26.4509    0.8320 H         1 NAD301      0.0000 
     60 H          32.7955  -28.7783    2.1180 H         1 NAD301      0.0000 
     61 H          36.0860  -27.3544    1.1948 H         1 NAD301      0.0000 
     62 H          38.1210  -27.5685    0.5217 H         1 NAD301      0.0000 
     63 H          39.6823  -26.8365    1.0239 H         1 NAD301      0.0000 
     64 H          37.8750  -28.9618    4.6143 H         1 NAD301      0.0000 
     65 H          35.7554  -29.9613    5.2250 H         1 NAD301      0.0000 
     66 H          33.8354  -29.6716    3.8035 H         1 NAD301      0.0000 
     67 H          32.3562  -25.0164   -8.3002 H         1 NAD301      0.0000 
     68 H          30.5975  -23.4643   -8.1474 H         1 NAD301      0.0000 
     69 H          30.8600  -28.5171    0.1671 H         1 NAD301      0.0000 
     70 H          33.3216  -25.9791    2.9260 H         1 NAD301      0.0000 
@<TRIPOS>BOND
     1    2    1 ar   
     2    3    1 ar   
     3    4    1 1    
     4   23    1 1    
     5    5    4 1    
     6    6    5 1    
     7   45    5 1    
     8   46    5 1    
     9    7    6 1    
    10    8    6 1    
    11   47    6 1    
    12   12    7 1    
    13    9    8 1    
    14   10    8 1    
    15   48    8 1    
    16   67    9 1    
    17   11   10 1    
    18   12   10 1    
    19   49   10 1    
    20   68   11 1    
    21   13   12 1    
    22   50   12 1    
    23   14   13 1    
    24   22   13 1    
    25   15   14 2    
    26   51   14 1    
    27   16   15 1    
    28   17   16 ar   
    29   22   16 ar   
    30   18   17 1    
    31   19   17 ar   
    32   52   18 1    
    33   53   18 1    
    34   20   19 ar   
    35   21   20 ar   
    36   54   20 1    
    37   22   21 ar   
    38   24   23 1    
    39   25   24 ar   
    40   26   24 ar   
    41   27   24 1    
    42   28   27 1    
    43   29   28 1    
    44   55   28 1    
    45   56   28 1    
    46   30   29 1    
    47   31   29 1    
    48   57   29 1    
    49   35   30 1    
    50   32   31 1    
    51   33   31 1    
    52   58   31 1    
    53   69   32 1    
    54   34   33 1    
    55   35   33 1    
    56   59   33 1    
    57   70   34 1    
    58   36   35 1    
    59   60   35 1    
    60   37   36 ar   
    61   44   36 ar   
    62   38   37 ar   
    63   61   37 1    
    64   39   38 1    
    65   42   38 ar   
    66   40   39 2    
    67   41   39 am   
    68   62   41 1    
    69   63   41 1    
    70   43   42 ar   
    71   64   42 1    
    72   44   43 ar   
    73   65   43 1    
    74   66   44 1    
@<TRIPOS>SUBSTRUCTURE
     1 NAD301      1 GROUP   
@<TRIPOS>SET

