#    Name: 3o03_NAP_1_INTS_M
#    Modification time : Tue Mar 25 03:02:35 2014

@<TRIPOS>MOLECULE
3o03_NAP_1_INTS_M
   90     0     9     0     0
SMALL
NO_CHARGES


@<TRIPOS>ATOM
      1 CA          7.9595   15.7935   17.0535 C.3       3 GLC5        0.0000 
      2 CA          9.4270   16.0620   15.8840 C.3       9 GLL5        0.0000 
      3 CA          6.4920   15.5250   18.2230 C.3       6 GLP5        0.0000 
      4 N           7.7875   16.1480   13.6400 N.am      2 SEC2        0.0000 
      5 N           8.4870   15.3990   14.9710 N.am      8 SEL2        0.0000 
      6 N           7.0880   16.8970   12.3090 N.am      5 SEP2        0.0000 
      7 CA         12.4140   15.4720   16.8020 C.3       3 GLC5        0.0000 
      8 CA         10.5740   15.0450   16.1540 C.3       9 GLL5        0.0000 
      9 CA         14.2540   15.8990   17.4500 C.3       6 GLP5        0.0000 
     10 N          10.8715   15.7740   18.1825 N.am      2 SEC2        0.0000 
     11 N          10.6000   14.6310   17.5390 N.am      8 SEL2        0.0000 
     12 N          11.1430   16.9170   18.8260 N.am      5 SEP2        0.0000 
     13 O           9.9405   13.8940   18.3585 O.2       1 ALC1        0.0000 
     14 O          10.6000   14.6310   17.5390 O.2       7 ALL1        0.0000 
     15 O           9.2810   13.1570   19.1780 O.2       4 ALP1        0.0000 
     16 CA          7.5740   14.7500   16.7235 C.3       3 GLC5        0.0000 
     17 CA          8.6560   13.9750   15.2240 C.3       9 GLL5        0.0000 
     18 CA          6.7580   14.7840   14.8395 C.3       3 GLC5        0.0000 
     19 CA          4.8600   15.5930   14.4550 C.3       6 GLP5        0.0000 
     20 CA          4.2220    9.4000   13.6500 C.3       3 GLC5        0.0000 
     21 CA          5.6320   10.9390   12.8500 C.3       9 GLL5        0.0000 
     22 CA          2.8120    7.8610   14.4500 C.3       6 GLP5        0.0000 
     23 O           4.3285    9.3290   11.6470 O.2       1 ALC1        0.0000 
     24 O           5.4180   10.3490   11.6660 O.2       7 ALL1        0.0000 
     25 O           3.2390    8.3090   11.6280 O.2       4 ALP1        0.0000 
     26 N           3.4040   10.3895   13.8105 N.am      2 SEC2        0.0000 
     27 N           4.8240   10.7330   13.9140 N.am      8 SEL2        0.0000 
     28 N           1.9840   10.0460   13.7070 N.am      5 SEP2        0.0000 
     29 CA          5.7945   11.0940   17.2005 C.3       3 GLC5        0.0000 
     30 CA          5.0530   11.3150   15.0910 C.3       9 GLL5        0.0000 
     31 CA          6.5360   10.8730   19.3100 C.3       6 GLP5        0.0000 
     32 CA          6.1760    9.8910   14.7670 C.3       3 GLC5        0.0000 
     33 CA          7.2990    8.4670   14.4430 C.3       6 GLP5        0.0000 
     34 CA          3.9325    9.5880   14.7705 C.3       3 GLC5        0.0000 
     35 CA          3.3505   12.1265   14.9865 C.3       3 GLC5        0.0000 
     36 CA          1.6480   12.9380   14.8820 C.3       6 GLP5        0.0000 
     37 CA          4.9565   13.4540   14.7730 C.3       3 GLC5        0.0000 
     38 N          11.9480   21.9750   17.5725 N.am      2 SEC2        0.0000 
     39 N          12.1070   21.2550   16.4160 N.am      8 SEL2        0.0000 
     40 N          11.7890   22.6950   18.7290 N.am      5 SEP2        0.0000 
     41 CA          9.9080   22.6875   15.9175 C.3       3 GLC5        0.0000 
     42 CA          9.3580   21.1130   14.5220 C.3       9 GLL5        0.0000 
     43 CA         10.4580   24.2620   17.3130 C.3       6 GLP5        0.0000 
     44 CA          6.4285   21.1285   14.4360 C.3       3 GLC5        0.0000 
     45 CA          8.3770   21.8280   13.5890 C.3       9 GLL5        0.0000 
     46 CA          4.4800   20.4290   15.2830 C.3       6 GLP5        0.0000 
     47 CA          7.8255   19.0160   11.5705 C.3       3 GLC5        0.0000 
     48 CA          8.2620   21.0520   12.2480 C.3       9 GLL5        0.0000 
     49 CA          7.3890   16.9800   10.8930 C.3       6 GLP5        0.0000 
     50 N           6.3695   21.6250   10.4160 N.am      2 SEC2        0.0000 
     51 N           6.9270   21.1410   11.7260 N.am      8 SEL2        0.0000 
     52 N           5.8120   22.1090    9.1060 N.am      5 SEP2        0.0000 
     53 CA          7.8805   22.1855    9.6275 C.3       3 GLC5        0.0000 
     54 CA          9.2400   21.8130   11.3610 C.3       9 GLL5        0.0000 
     55 CA          6.5210   22.5580    7.8940 C.3       6 GLP5        0.0000 
     56 N           9.4385   22.3915    8.9460 N.am      2 SEC2        0.0000 
     57 N           8.9240   21.5770    9.9790 N.am      8 SEL2        0.0000 
     58 N           9.9530   23.2060    7.9130 N.am      5 SEP2        0.0000 
     59 N           7.3680   21.8430    9.5425 N.am      2 SEC2        0.0000 
     60 CA          7.6190   24.0850   12.5245 C.3       3 GLC5        0.0000 
     61 CA          8.9940   23.2660   11.8210 C.3       9 GLL5        0.0000 
     62 CA          6.2440   24.9040   13.2280 C.3       6 GLP5        0.0000 
     63 CA          9.1545   27.0680    9.1265 C.3       3 GLC5        0.0000 
     64 CA         10.6590   26.4130   10.4960 C.3       9 GLL5        0.0000 
     65 CA          7.6500   27.7230    7.7570 C.3       6 GLP5        0.0000 
     66 CA          7.9640   25.1760   12.0015 C.3       3 GLC5        0.0000 
     67 CA          9.6840   25.4480   10.7750 C.3       9 GLL5        0.0000 
     68 CA          8.9210   25.9775    8.8510 C.3       3 GLC5        0.0000 
     69 CA          8.1580   26.5070    6.9270 C.3       6 GLP5        0.0000 
     70 CA          9.1435   26.8520   11.9040 C.3       3 GLC5        0.0000 
     71 CA          8.6030   28.2560   13.0330 C.3       6 GLP5        0.0000 
     72 N          13.8620   14.0515   16.0765 N.am      2 SEC2        0.0000 
     73 N          13.4620   12.7100   15.9880 N.am      8 SEL2        0.0000 
     74 N          14.2620   15.3930   16.1650 N.am      5 SEP2        0.0000 
     75 CA          7.6158   16.8045   14.8610 C.3       3 GLC5        0.0000 
     76 CA          5.5940   16.9280   14.2120 C.3       6 GLP5        0.0000 
     77 CA          4.3693   12.0823   12.7152 C.3       3 GLC5        0.0000 
     78 CA          2.5590   12.8030   12.5010 C.3       6 GLP5        0.0000 
     79 CA          5.8475   13.8388   14.0422 C.3       3 GLC5        0.0000 
     80 CA          6.7270   11.7840   13.0090 C.3       9 GLL5        0.0000 
     81 CA          5.9447   12.6068   11.2037 C.3       3 GLC5        0.0000 
     82 CA          5.7100   13.8520    9.4780 C.3       6 GLP5        0.0000 
     83 CA          6.9301   10.1701   14.0164 C.3       3 GLC5        0.0000 
     84 CA          7.2818   23.1720   13.0732 C.3       3 GLC5        0.0000 
     85 CA         11.7637   25.4530   13.3652 C.3       3 GLC5        0.0000 
     86 CA         11.3510   24.1360   12.0060 C.3       9 GLL5        0.0000 
     87 CA         11.6270   25.4620   15.3100 C.3       6 GLP5        0.0000 
     88 CA         10.5630   27.7435   11.7867 C.3       3 GLC5        0.0000 
     89 CA         11.9710   26.2610   10.9750 C.3       9 GLL5        0.0000 
     90 CA          9.8110   29.1500   12.8380 C.3       6 GLP5        0.0000 
@<TRIPOS>BOND
@<TRIPOS>SUBSTRUCTURE
     1 ALC1       13 GROUP        1 X    ALC  0     ROOT ALC X 1
     2 SEC2        4 GROUP        1 X    SEC  0     **** SEC X 2
     3 GLC5        1 GROUP        1 X    GLC  0     **** GLC X 6
     4 ALP1       15 GROUP        1 Y    ALP  0     ROOT ALP Y 8
     5 SEP2        6 GROUP        1 Y    SEP  0     **** SEP Y 9
     6 GLP5        3 GROUP        1 Y    GLP  0     **** GLP Y 13
     7 ALL1       14 GROUP        1 Z    ALL  0     ROOT ALL Z 15
     8 SEL2        5 GROUP        1 Z    SEL  0     **** SEL Z 16
     9 GLL5        2 GROUP        1 Z    GLL  0     **** GLL Z 20
@<TRIPOS>SET

