#    Name: 3o03_NAP_1_ligand
#    Modification time : Tue Mar 25 03:02:35 2014

@<TRIPOS>MOLECULE
3o03_NAP_1_ligand
   73    77     1     0     0
SMALL
NO_CHARGES


@<TRIPOS>ATOM
      1 PA         11.7450   18.3730   13.5190 P.3       1 NAP273      0.0000 
      2 O1A        12.9920   17.6100   13.2690 O.co2     1 NAP273      0.0000 
      3 O2A        10.5280   18.3620   12.6560 O.co2     1 NAP273      0.0000 
      4 O5B        11.1300   17.1520   14.4440 O.3       1 NAP273      0.0000 
      5 C5B         9.8480   17.3000   15.1360 C.3       1 NAP273      0.0000 
      6 C4B         9.4270   16.0620   15.8840 C.3       1 NAP273      0.0000 
      7 O4B         8.4870   15.3990   14.9710 O.3       1 NAP273      0.0000 
      8 C3B        10.5740   15.0450   16.1540 C.3       1 NAP273      0.0000 
      9 O3B        10.6000   14.6310   17.5390 O.3       1 NAP273      0.0000 
     10 C2B        10.1920   13.8840   15.2180 C.3       1 NAP273      0.0000 
     11 O2B        10.7480   12.6130   15.6050 O.3       1 NAP273      0.0000 
     12 C1B         8.6560   13.9750   15.2240 C.3       1 NAP273      0.0000 
     13 N9A         8.0400   13.1320   14.1340 N.pl3     1 NAP273      0.0000 
     14 C8A         8.4950   13.0050   12.8790 C.2       1 NAP273      0.0000 
     15 N7A         7.6880   12.1890   12.1750 N.2       1 NAP273      0.0000 
     16 C5A         6.7270   11.7840   13.0090 C.ar      1 NAP273      0.0000 
     17 C6A         5.6320   10.9390   12.8500 C.ar      1 NAP273      0.0000 
     18 N6A         5.4180   10.3490   11.6660 N.pl3     1 NAP273      0.0000 
     19 N1A         4.8240   10.7330   13.9140 N.ar      1 NAP273      0.0000 
     20 C2A         5.0530   11.3150   15.0910 C.ar      1 NAP273      0.0000 
     21 N3A         6.1010   12.1400   15.2800 N.ar      1 NAP273      0.0000 
     22 C4A         6.9430   12.3850   14.2500 C.ar      1 NAP273      0.0000 
     23 O3         11.6890   19.2770   14.9220 O.3       1 NAP273      0.0000 
     24 PN         12.0220   20.9080   14.9870 P.3       1 NAP273      0.0000 
     25 O1N        13.1410   21.2950   14.0900 O.co2     1 NAP273      0.0000 
     26 O2N        12.1070   21.2550   16.4160 O.co2     1 NAP273      0.0000 
     27 O5D        10.6970   21.5730   14.2910 O.3       1 NAP273      0.0000 
     28 C5D         9.3580   21.1130   14.5220 C.3       1 NAP273      0.0000 
     29 C4D         8.3770   21.8280   13.5890 C.3       1 NAP273      0.0000 
     30 O4D         8.8950   23.1700   13.2830 O.3       1 NAP273      0.0000 
     31 C3D         8.2620   21.0520   12.2480 C.3       1 NAP273      0.0000 
     32 O3D         6.9270   21.1410   11.7260 O.3       1 NAP273      0.0000 
     33 C2D         9.2400   21.8130   11.3610 C.3       1 NAP273      0.0000 
     34 O2D         8.9240   21.5770    9.9790 O.3       1 NAP273      0.0000 
     35 C1D         8.9940   23.2660   11.8210 C.3       1 NAP273      0.0000 
     36 N1N        10.0300   24.2970   11.5370 N.pl3     1 NAP273      0.0000 
     37 C2N        11.3510   24.1360   12.0060 C.ar      1 NAP273      0.0000 
     38 C3N        12.3090   25.1180   11.7260 C.ar      1 NAP273      0.0000 
     39 C7N        13.7250   24.9170   12.2740 C.2       1 NAP273      0.0000 
     40 O7N        13.9840   23.9670   13.2210 O.2       1 NAP273      0.0000 
     41 N7N        14.6730   25.7150   11.7900 N.am      1 NAP273      0.0000 
     42 C4N        11.9710   26.2610   10.9750 C.ar      1 NAP273      0.0000 
     43 C5N        10.6590   26.4130   10.4960 C.ar      1 NAP273      0.0000 
     44 C6N         9.6840   25.4480   10.7750 C.ar      1 NAP273      0.0000 
     45 P2B        12.2940   12.3140   14.9000 P.3       1 NAP273      0.0000 
     46 O1X        12.3860   10.6850   14.6200 O.co2     1 NAP273      0.0000 
     47 O2X        13.4620   12.7100   15.9880 O.co2     1 NAP273      0.0000 
     48 O3X        12.5200   13.0890   13.6100 O.co2     1 NAP273      0.0000 
     49 H           9.0505   17.5601   14.4105 H         1 NAP273      0.0000 
     50 H           9.8969   18.1442   15.8536 H         1 NAP273      0.0000 
     51 H           8.9427   16.3086   16.7826 H         1 NAP273      0.0000 
     52 H          11.4703   15.4711   15.8063 H         1 NAP273      0.0000 
     53 H          10.5088   14.1972   14.2185 H         1 NAP273      0.0000 
     54 H           8.3137   13.7186   16.1781 H         1 NAP273      0.0000 
     55 H           9.2961   13.4404   12.5238 H         1 NAP273      0.0000 
     56 H           4.6018    9.7748   11.6016 H         1 NAP273      0.0000 
     57 H           6.0937   10.5357   10.9528 H         1 NAP273      0.0000 
     58 H           4.3997   11.1286   15.9000 H         1 NAP273      0.0000 
     59 H           9.0373   21.3052   15.5545 H         1 NAP273      0.0000 
     60 H           9.2647   20.0339   14.3412 H         1 NAP273      0.0000 
     61 H           7.4225   21.8773   14.0375 H         1 NAP273      0.0000 
     62 H           8.6155   20.0828   12.3988 H         1 NAP273      0.0000 
     63 H          10.2167   21.5357   11.6433 H         1 NAP273      0.0000 
     64 H           8.0275   23.5812   11.4519 H         1 NAP273      0.0000 
     65 H          11.6019   23.3070   12.5457 H         1 NAP273      0.0000 
     66 H          15.5844   25.6066   12.1869 H         1 NAP273      0.0000 
     67 H          14.3887   26.3513   11.0729 H         1 NAP273      0.0000 
     68 H          12.6754   26.9726   10.7812 H         1 NAP273      0.0000 
     69 H          10.4153   27.2402    9.9364 H         1 NAP273      0.0000 
     70 H           8.7286   25.5596   10.4389 H         1 NAP273      0.0000 
     71 H           9.9357   13.8860   17.5988 H         1 NAP273      0.0000 
     72 H           6.5437   21.9689   12.1355 H         1 NAP273      0.0000 
     73 H           8.0174   21.1550    9.9893 H         1 NAP273      0.0000 
@<TRIPOS>BOND
     1    2    1 ar   
     2    3    1 ar   
     3    4    1 1    
     4   23    1 1    
     5    5    4 1    
     6    6    5 1    
     7   49    5 1    
     8   50    5 1    
     9    7    6 1    
    10    8    6 1    
    11   51    6 1    
    12   12    7 1    
    13    9    8 1    
    14   10    8 1    
    15   52    8 1    
    16   71    9 1    
    17   11   10 1    
    18   12   10 1    
    19   53   10 1    
    20   45   11 1    
    21   13   12 1    
    22   54   12 1    
    23   14   13 1    
    24   22   13 1    
    25   15   14 2    
    26   55   14 1    
    27   16   15 1    
    28   17   16 ar   
    29   22   16 ar   
    30   18   17 1    
    31   19   17 ar   
    32   56   18 1    
    33   57   18 1    
    34   20   19 ar   
    35   21   20 ar   
    36   58   20 1    
    37   22   21 ar   
    38   24   23 1    
    39   25   24 ar   
    40   26   24 ar   
    41   27   24 1    
    42   28   27 1    
    43   29   28 1    
    44   59   28 1    
    45   60   28 1    
    46   30   29 1    
    47   31   29 1    
    48   61   29 1    
    49   35   30 1    
    50   32   31 1    
    51   33   31 1    
    52   62   31 1    
    53   72   32 1    
    54   34   33 1    
    55   35   33 1    
    56   63   33 1    
    57   73   34 1    
    58   36   35 1    
    59   64   35 1    
    60   37   36 ar   
    61   44   36 ar   
    62   38   37 ar   
    63   65   37 1    
    64   39   38 1    
    65   42   38 ar   
    66   40   39 2    
    67   41   39 am   
    68   66   41 1    
    69   67   41 1    
    70   43   42 ar   
    71   68   42 1    
    72   44   43 ar   
    73   69   43 1    
    74   70   44 1    
    75   46   45 ar   
    76   47   45 ar   
    77   48   45 ar   
@<TRIPOS>SUBSTRUCTURE
     1 NAP273      1 GROUP   
@<TRIPOS>SET

