#    Name: 3qly_55V_1_INTS_M
#    Modification time : Tue Mar 25 09:55:56 2014

@<TRIPOS>MOLECULE
3qly_55V_1_INTS_M
   67     0     9     0     0
SMALL
NO_CHARGES


@<TRIPOS>ATOM
      1 CA          8.9090   32.6810    6.4215 C.3       3 GLC5        0.0000 
      2 CA          8.2390   33.5540    4.7470 C.3       9 GLL5        0.0000 
      3 CA          9.5790   31.8080    8.0960 C.3       6 GLP5        0.0000 
      4 CA          8.9860   32.8545    3.2355 C.3       3 GLC5        0.0000 
      5 CA          9.7330   32.1550    1.7240 C.3       6 GLP5        0.0000 
      6 CA          3.7880   34.4300    4.8200 C.3       3 GLC5        0.0000 
      7 CA          5.0630   33.1070    5.9380 C.3       9 GLL5        0.0000 
      8 CA          2.5130   35.7530    3.7020 C.3       6 GLP5        0.0000 
      9 CA          7.9365   32.9785    7.8515 C.3       3 GLC5        0.0000 
     10 CA          6.2940   34.1490    7.6070 C.3       9 GLL5        0.0000 
     11 CA          1.9365   32.9435    7.0570 C.3       3 GLC5        0.0000 
     12 CA          2.4430   30.8980    7.0860 C.3       9 GLL5        0.0000 
     13 CA          1.4300   34.9890    7.0280 C.3       6 GLP5        0.0000 
     14 CA          3.4105   29.9815    0.4995 C.3       3 GLC5        0.0000 
     15 CA          4.8700   30.6730    1.5430 C.3       9 GLL5        0.0000 
     16 CA          1.9510   29.2900   -0.5440 C.3       6 GLP5        0.0000 
     17 CA          3.8650   32.3210    1.3460 C.3       3 GLC5        0.0000 
     18 CA          2.8600   33.9690    1.1490 C.3       6 GLP5        0.0000 
     19 CA          5.5145   31.2370   -0.1995 C.3       3 GLC5        0.0000 
     20 CA          6.1590   31.8010   -1.9420 C.3       6 GLP5        0.0000 
     21 CA          3.8390   27.3695    4.4110 C.3       3 GLC5        0.0000 
     22 CA          3.7860   29.0560    3.1240 C.3       9 GLL5        0.0000 
     23 CA          3.8920   25.6830    5.6980 C.3       6 GLP5        0.0000 
     24 CA          2.8685   29.1730    1.2900 C.3       3 GLC5        0.0000 
     25 CA          3.8650   27.6170    1.8450 C.3       3 GLC5        0.0000 
     26 CA          3.9440   26.1780    0.5660 C.3       6 GLP5        0.0000 
     27 CA          8.6620   29.3865    1.6200 C.3       3 GLC5        0.0000 
     28 CA          7.2280   28.5240    2.9170 C.3       9 GLL5        0.0000 
     29 CA         10.0960   30.2490    0.3230 C.3       6 GLP5        0.0000 
     30 CA          6.8890   27.6505    6.3415 C.3       3 GLC5        0.0000 
     31 CA          8.7270   28.1220    5.3430 C.3       9 GLL5        0.0000 
     32 CA          5.0510   27.1790    7.3400 C.3       6 GLP5        0.0000 
     33 CA          8.5090   29.3620    6.5355 C.3       3 GLC5        0.0000 
     34 CA          8.2910   30.6020    7.7280 C.3       6 GLP5        0.0000 
     35 N          10.8075   26.5420    5.1450 N.am      2 SEC2        0.0000 
     36 N          10.2840   26.7780    3.9410 N.am      8 SEL2        0.0000 
     37 N          11.3310   26.3060    6.3490 N.am      5 SEP2        0.0000 
     38 CA         11.7935   26.3930    1.0070 C.3       3 GLC5        0.0000 
     39 CA         10.6870   26.2480    2.7750 C.3       9 GLL5        0.0000 
     40 CA         12.9000   26.5380   -0.7610 C.3       6 GLP5        0.0000 
     41 CA         10.2965   24.7665    1.5115 C.3       3 GLC5        0.0000 
     42 CA          9.9060   23.2850    0.2480 C.3       6 GLP5        0.0000 
     43 CA         10.3275   24.6380    3.8915 C.3       3 GLC5        0.0000 
     44 CA          9.9680   23.0280    5.0080 C.3       6 GLP5        0.0000 
     45 CA         11.4795   28.0740    3.0905 C.3       3 GLC5        0.0000 
     46 CA         12.2720   29.9000    3.4060 C.3       6 GLP5        0.0000 
     47 O          12.3605   25.3815    4.0090 O.2       1 ALC1        0.0000 
     48 O          11.8010   25.5230    2.7400 O.2       7 ALL1        0.0000 
     49 O          12.9200   25.2400    5.2780 O.2       4 ALP1        0.0000 
     50 CA          9.3815   25.2300    0.9555 C.3       3 GLC5        0.0000 
     51 CA          8.8570   27.1750    1.6630 C.3       9 GLL5        0.0000 
     52 O           8.8730   26.3270   -0.5405 O.2       1 ALC1        0.0000 
     53 O           8.1660   27.3550    0.5390 O.2       7 ALL1        0.0000 
     54 O           9.5800   25.2990   -1.6200 O.2       4 ALP1        0.0000 
     55 CA          6.9082   31.8555    6.5715 C.3       3 GLC5        0.0000 
     56 CA          5.9880   33.1110    4.8920 C.3       9 GLL5        0.0000 
     57 CA          3.8520   32.5870    3.2180 C.3       3 GLC5        0.0000 
     58 CA          5.9600   32.1000    3.9340 C.3       9 GLL5        0.0000 
     59 CA          2.2180   33.5830    2.4660 C.3       6 GLP5        0.0000 
     60 CA          3.0067   33.7960    6.5010 C.3       3 GLC5        0.0000 
     61 CA          4.1040   32.0990    6.0100 C.3       9 GLL5        0.0000 
     62 CA          3.1528   32.5902    3.9945 C.3       3 GLC5        0.0000 
     63 CA          5.9135   27.2642    2.0310 C.3       3 GLC5        0.0000 
     64 CA          6.2140   29.2090    2.9390 C.3       9 GLL5        0.0000 
     65 CA          5.1060   25.6620    1.1340 C.3       6 GLP5        0.0000 
     66 CA         10.5170   28.8875    3.8975 C.3       3 GLC5        0.0000 
     67 CA          8.4250   27.7380    2.8600 C.3       9 GLL5        0.0000 
@<TRIPOS>BOND
@<TRIPOS>SUBSTRUCTURE
     1 ALC1       47 GROUP        1 X    ALC  0     ROOT ALC X 1
     2 SEC2       35 GROUP        1 X    SEC  0     **** SEC X 2
     3 GLC5        1 GROUP        1 X    GLC  0     **** GLC X 6
     4 ALP1       49 GROUP        1 Y    ALP  0     ROOT ALP Y 8
     5 SEP2       37 GROUP        1 Y    SEP  0     **** SEP Y 9
     6 GLP5        3 GROUP        1 Y    GLP  0     **** GLP Y 13
     7 ALL1       48 GROUP        1 Z    ALL  0     ROOT ALL Z 15
     8 SEL2       36 GROUP        1 Z    SEL  0     **** SEL Z 16
     9 GLL5        2 GROUP        1 Z    GLL  0     **** GLL Z 20
@<TRIPOS>SET

