#    Name: 3qly_55V_1_ligand
#    Modification time : Tue Mar 25 09:55:56 2014

@<TRIPOS>MOLECULE
3qly_55V_1_ligand
   50    51     1     0     0
SMALL
NO_CHARGES


@<TRIPOS>ATOM
      1 C1P         8.2390   33.5540    4.7470 C.3       1 55V229      0.0000 
      2 O1O         6.9160   34.1070    4.7980 O.3       1 55V229      0.0000 
      3 C1N         5.9880   33.1110    4.8920 C.ar      1 55V229      0.0000 
      4 C1M         5.9600   32.1000    3.9340 C.ar      1 55V229      0.0000 
      5 C1Q         5.0630   33.1070    5.9380 C.ar      1 55V229      0.0000 
      6 O1V         5.0610   34.1070    6.8750 O.3       1 55V229      0.0000 
      7 C1W         6.2940   34.1490    7.6070 C.3       1 55V229      0.0000 
      8 C1R         4.1040   32.0990    6.0100 C.ar      1 55V229      0.0000 
      9 O1T         3.1930   32.1120    7.0320 O.3       1 55V229      0.0000 
     10 C1U         2.4430   30.8980    7.0860 C.3       1 55V229      0.0000 
     11 C1S         4.0710   31.0960    5.0360 C.ar      1 55V229      0.0000 
     12 C1L         5.0120   31.0820    4.0060 C.ar      1 55V229      0.0000 
     13 C1J         4.9750   29.9930    2.9110 C.3       1 55V229      0.0000 
     14 C1K         4.8700   30.6730    1.5430 C.3       1 55V229      0.0000 
     15 C1X         3.7860   29.0560    3.1240 C.3       1 55V229      0.0000 
     16 C1I         6.2140   29.2090    2.9390 C.1       1 55V229      0.0000 
     17 C1H         7.2280   28.5240    2.9170 C.1       1 55V229      0.0000 
     18 C5          8.4250   27.7380    2.8600 C.ar      1 55V229      0.0000 
     19 C4          9.1690   27.5180    4.0100 C.ar      1 55V229      0.0000 
     20 C1Y         8.7270   28.1220    5.3430 C.3       1 55V229      0.0000 
     21 N3         10.2840   26.7780    3.9410 N.ar      1 55V229      0.0000 
     22 C2         10.6870   26.2480    2.7750 C.ar      1 55V229      0.0000 
     23 N1Z        11.8010   25.5230    2.7400 N.pl3     1 55V229      0.0000 
     24 N1          9.9820   26.4460    1.6470 N.ar      1 55V229      0.0000 
     25 C6          8.8570   27.1750    1.6630 C.ar      1 55V229      0.0000 
     26 N1G         8.1660   27.3550    0.5390 N.pl3     1 55V229      0.0000 
     27 H           6.6472   32.1054    3.1648 H         1 55V229      0.0000 
     28 H           3.3484   30.3652    5.0805 H         1 55V229      0.0000 
     29 H          12.0327   25.1147    1.8571 H         1 55V229      0.0000 
     30 H          12.3066   25.4515    3.5998 H         1 55V229      0.0000 
     31 H           8.5349   26.9148   -0.2796 H         1 55V229      0.0000 
     32 H           7.3404   27.9141    0.6148 H         1 55V229      0.0000 
     33 H           8.9373   34.2669    4.6819 H         1 55V229      0.0000 
     34 H           8.4472   33.0133    5.5621 H         1 55V229      0.0000 
     35 H           8.3599   32.9524    3.9574 H         1 55V229      0.0000 
     36 H           7.0774   34.3077    7.0061 H         1 55V229      0.0000 
     37 H           6.2958   34.8795    8.2900 H         1 55V229      0.0000 
     38 H           6.4665   33.2925    8.0935 H         1 55V229      0.0000 
     39 H           3.0324   30.1035    7.2319 H         1 55V229      0.0000 
     40 H           1.7743   30.9073    7.8295 H         1 55V229      0.0000 
     41 H           1.9371   30.7360    6.2388 H         1 55V229      0.0000 
     42 H           5.6480   31.2762    1.3674 H         1 55V229      0.0000 
     43 H           4.8419   30.0064    0.7981 H         1 55V229      0.0000 
     44 H           4.0436   31.2312    1.4681 H         1 55V229      0.0000 
     45 H           3.7457   28.3422    2.4248 H         1 55V229      0.0000 
     46 H           3.8301   28.5956    4.0106 H         1 55V229      0.0000 
     47 H           2.9156   29.5473    3.0918 H         1 55V229      0.0000 
     48 H           9.3528   27.8820    6.0852 H         1 55V229      0.0000 
     49 H           8.6882   29.1205    5.3036 H         1 55V229      0.0000 
     50 H           7.8179   27.8037    5.6117 H         1 55V229      0.0000 
@<TRIPOS>BOND
     1    2    1 1    
     2   33    1 1    
     3   34    1 1    
     4   35    1 1    
     5    3    2 1    
     6    4    3 ar   
     7    5    3 ar   
     8   12    4 ar   
     9   27    4 1    
    10    6    5 1    
    11    8    5 ar   
    12    7    6 1    
    13   36    7 1    
    14   37    7 1    
    15   38    7 1    
    16    9    8 1    
    17   11    8 ar   
    18   10    9 1    
    19   39   10 1    
    20   40   10 1    
    21   41   10 1    
    22   12   11 ar   
    23   28   11 1    
    24   13   12 1    
    25   14   13 1    
    26   15   13 1    
    27   16   13 1    
    28   42   14 1    
    29   43   14 1    
    30   44   14 1    
    31   45   15 1    
    32   46   15 1    
    33   47   15 1    
    34   17   16 3    
    35   18   17 1    
    36   19   18 ar   
    37   25   18 ar   
    38   20   19 1    
    39   21   19 ar   
    40   48   20 1    
    41   49   20 1    
    42   50   20 1    
    43   22   21 ar   
    44   23   22 1    
    45   24   22 ar   
    46   29   23 1    
    47   30   23 1    
    48   25   24 ar   
    49   26   25 1    
    50   31   26 1    
    51   32   26 1    
@<TRIPOS>SUBSTRUCTURE
     1 55V229      1 GROUP   
@<TRIPOS>SET

