#    Name: 1j5i_NCZ_1_INTS_M
#    Modification time : Tue Mar 25 08:37:49 2014

@<TRIPOS>MOLECULE
1j5i_NCZ_1_INTS_M
   41     0     3     0     0
SMALL
NO_CHARGES


@<TRIPOS>ATOM
      1 CA          2.0780    8.4505    1.5445 C.3       1 GLC5        0.0000 
      2 CA          0.6830    7.1240    1.2830 C.3       3 GLL5        0.0000 
      3 CA          3.4730    9.7770    1.8060 C.3       2 GLP5        0.0000 
      4 CA         -1.9705   10.5165    2.5625 C.3       1 GLC5        0.0000 
      5 CA         -0.9370   11.9400    1.5490 C.3       3 GLL5        0.0000 
      6 CA         -3.0040    9.0930    3.5760 C.3       2 GLP5        0.0000 
      7 CA         -2.7595   13.2495   -0.1695 C.3       1 GLC5        0.0000 
      8 CA         -1.5270   11.7790    0.1960 C.3       3 GLL5        0.0000 
      9 CA         -3.9920   14.7200   -0.5350 C.3       2 GLP5        0.0000 
     10 CA         -1.3360    7.7470    2.9830 C.3       1 GLC5        0.0000 
     11 CA          0.3320    6.4010    2.3900 C.3       3 GLL5        0.0000 
     12 CA          2.8010    8.2565    3.9165 C.3       1 GLC5        0.0000 
     13 CA          1.1760    8.0560    4.0800 C.3       3 GLL5        0.0000 
     14 CA          4.4260    8.4570    3.7530 C.3       2 GLP5        0.0000 
     15 CA         -0.9140    8.5745    3.8280 C.3       1 GLC5        0.0000 
     16 CA         -2.7300    2.3880    1.1205 C.3       1 GLC5        0.0000 
     17 CA         -1.7310    3.6670    0.8740 C.3       3 GLL5        0.0000 
     18 CA         -3.7290    1.1090    1.3670 C.3       2 GLP5        0.0000 
     19 CA         -3.5705    3.5670   -0.0975 C.3       1 GLC5        0.0000 
     20 CA         -5.4100    3.4670   -1.0690 C.3       2 GLP5        0.0000 
     21 CA         -2.1810    2.8825    2.8220 C.3       1 GLC5        0.0000 
     22 CA         -2.6310    2.0980    4.7700 C.3       2 GLP5        0.0000 
     23 CA          0.7368    5.0917   -0.4140 C.3       1 GLC5        0.0000 
     24 CA         -0.5130    5.6060   -0.1660 C.3       3 GLL5        0.0000 
     25 CA          2.1980    4.7850   -0.0330 C.3       2 GLP5        0.0000 
     26 CA         -2.1288    6.5117   -1.6035 C.3       1 GLC5        0.0000 
     27 CA         -3.5330    7.6250   -2.4120 C.3       2 GLP5        0.0000 
     28 CA          0.9520    5.6402   -1.6322 C.3       1 GLC5        0.0000 
     29 CA         -0.9360    5.1910   -1.4240 C.3       3 GLL5        0.0000 
     30 CA         -1.6480    7.3235   -2.1041 C.3       1 GLC5        0.0000 
     31 CA          0.6290    7.5510   -1.1220 C.3       3 GLL5        0.0000 
     32 CA          2.0410   10.6092    1.3545 C.3       1 GLC5        0.0000 
     33 CA          0.8290   11.1440    0.2320 C.3       3 GLL5        0.0000 
     34 CA         -2.6615   12.2207    1.7298 C.3       1 GLC5        0.0000 
     35 CA         -4.0910   12.5820    2.5870 C.3       2 GLP5        0.0000 
     36 CA          1.3010    5.7293    0.7409 C.3       1 GLC5        0.0000 
     37 CA          0.5011    4.5809    0.5976 C.3       1 GLC5        0.0000 
     38 CA         -0.4510    5.2860    2.2130 C.3       3 GLL5        0.0000 
     39 CA          1.6904    6.7245   -1.5984 C.3       1 GLC5        0.0000 
     40 CA          0.2380    7.0730   -2.4050 C.3       3 GLL5        0.0000 
     41 CA          3.0940    6.6720   -2.5360 C.3       2 GLP5        0.0000 
@<TRIPOS>BOND
@<TRIPOS>SUBSTRUCTURE
     1 GLC5        1 GROUP        1 X    GLC  0     ROOT GLC X 6
     2 GLP5        3 GROUP        1 Y    GLP  0     ROOT GLP Y 13
     3 GLL5        2 GROUP        1 Z    GLL  0     ROOT GLL Z 20
@<TRIPOS>SET

