#    Name: 1j5i_NCZ_1_ligand
#    Modification time : Tue Mar 25 08:37:49 2014

@<TRIPOS>MOLECULE
1j5i_NCZ_1_ligand
   42    44     1     0     0
SMALL
NO_CHARGES


@<TRIPOS>ATOM
      1 C1          0.6830    7.1240    1.2830 C.ar      1 NCZ130      0.0000 
      2 C6          0.2690    6.7680   -0.0040 C.ar      1 NCZ130      0.0000 
      3 C5         -0.5130    5.6060   -0.1660 C.ar      1 NCZ130      0.0000 
      4 C7         -0.9360    5.1910   -1.4240 C.ar      1 NCZ130      0.0000 
      5 C8         -0.5480    5.9130   -2.5360 C.ar      1 NCZ130      0.0000 
      6 C9          0.2380    7.0730   -2.4050 C.ar      1 NCZ130      0.0000 
      7 C10         0.6290    7.5510   -1.1220 C.ar      1 NCZ130      0.0000 
      8 C11         1.0210    8.9340   -0.9690 C.2       1 NCZ130      0.0000 
      9 O3          1.4950    9.5480   -1.9250 O.2       1 NCZ130      0.0000 
     10 O4          0.9320    9.6840    0.2910 O.3       1 NCZ130      0.0000 
     11 C12         0.8290   11.1440    0.2320 C.3       1 NCZ130      0.0000 
     12 C13         0.3890   11.7390    1.5740 C.3       1 NCZ130      0.0000 
     13 C14        -0.9370   11.9400    1.5490 C.2       1 NCZ130      0.0000 
     14 C15        -1.5270   11.7790    0.1960 C.2       1 NCZ130      0.0000 
     15 C16        -0.3080   11.5460   -0.7200 C.3       1 NCZ130      0.0000 
     16 O6         -0.0260   12.7910   -1.4190 O.3       1 NCZ130      0.0000 
     17 O5          1.0480   12.9880    1.7900 O.3       1 NCZ130      0.0000 
     18 O2          0.5790    7.7470   -3.5890 O.3       1 NCZ130      0.0000 
     19 C4         -0.8700    4.8870    0.9520 C.ar      1 NCZ130      0.0000 
     20 C3         -0.4510    5.2860    2.2130 C.ar      1 NCZ130      0.0000 
     21 C2          0.3320    6.4010    2.3900 C.ar      1 NCZ130      0.0000 
     22 O1          0.7360    6.7450    3.6700 O.3       1 NCZ130      0.0000 
     23 C17         1.1760    8.0560    4.0800 C.3       1 NCZ130      0.0000 
     24 C18        -1.7310    3.6670    0.8740 C.3       1 NCZ130      0.0000 
     25 H           1.2823    7.9758    1.3900 H         1 NCZ130      0.0000 
     26 H          -1.5271    4.3607   -1.5204 H         1 NCZ130      0.0000 
     27 H          -0.8326    5.6069   -3.4807 H         1 NCZ130      0.0000 
     28 H           1.7114   11.6153   -0.0832 H         1 NCZ130      0.0000 
     29 H           0.6878   11.0277    2.3397 H         1 NCZ130      0.0000 
     30 H          -1.5183   12.1699    2.2976 H         1 NCZ130      0.0000 
     31 H          -2.3607   11.8043   -0.0571 H         1 NCZ130      0.0000 
     32 H          -0.5279   10.7462   -1.3642 H         1 NCZ130      0.0000 
     33 H          -0.7399    4.7232    3.0412 H         1 NCZ130      0.0000 
     34 H           1.4214    8.0791    5.0491 H         1 NCZ130      0.0000 
     35 H           1.9804    8.3552    3.5667 H         1 NCZ130      0.0000 
     36 H           0.4661    8.7464    3.9409 H         1 NCZ130      0.0000 
     37 H          -1.3144    2.9539    0.3102 H         1 NCZ130      0.0000 
     38 H          -1.8939    3.2690    1.7768 H         1 NCZ130      0.0000 
     39 H          -2.6263    3.8690    0.4769 H         1 NCZ130      0.0000 
     40 H           0.9372   12.9815   -1.2296 H         1 NCZ130      0.0000 
     41 H           1.9931   12.7471    2.0106 H         1 NCZ130      0.0000 
     42 H           1.0067    8.5992   -3.2876 H         1 NCZ130      0.0000 
@<TRIPOS>BOND
     1    2    1 ar   
     2   21    1 ar   
     3   25    1 1    
     4    3    2 ar   
     5    7    2 ar   
     6    4    3 ar   
     7   19    3 ar   
     8    5    4 ar   
     9   26    4 1    
    10    6    5 ar   
    11   27    5 1    
    12    7    6 ar   
    13   18    6 1    
    14    8    7 1    
    15    9    8 2    
    16   10    8 1    
    17   11   10 1    
    18   12   11 1    
    19   15   11 1    
    20   28   11 1    
    21   13   12 1    
    22   17   12 1    
    23   29   12 1    
    24   14   13 2    
    25   30   13 1    
    26   15   14 1    
    27   31   14 1    
    28   16   15 1    
    29   32   15 1    
    30   40   16 1    
    31   41   17 1    
    32   42   18 1    
    33   20   19 ar   
    34   24   19 1    
    35   21   20 ar   
    36   33   20 1    
    37   22   21 1    
    38   23   22 1    
    39   34   23 1    
    40   35   23 1    
    41   36   23 1    
    42   37   24 1    
    43   38   24 1    
    44   39   24 1    
@<TRIPOS>SUBSTRUCTURE
     1 NCZ130      1 GROUP   
@<TRIPOS>SET

