#    Name: 3ehg_ATP_1_INTS_M
#    Modification time : Tue Mar 25 01:52:11 2014

@<TRIPOS>MOLECULE
3ehg_ATP_1_INTS_M
   85     0    15     0     0
SMALL
NO_CHARGES


@<TRIPOS>ATOM
      1 N          25.5810   52.4975    7.7455 N.am      2 SEC2        0.0000 
      2 N          25.7100   51.3080    8.3500 N.am     12 SEL2        0.0000 
      3 N          25.4520   53.6870    7.1410 N.am      7 SEP2        0.0000 
      4 NZ         25.0755   50.7735   12.1160 N.4       3 LYC4        0.0000 
      5 NZ         25.4470   50.4900   10.7660 N.4      13 LYL4        0.0000 
      6 NZ         24.7040   51.0570   13.4660 N.4       8 LYP4        0.0000 
      7 N          25.0755   50.7735   12.1160 N.am      2 SEC2        0.0000 
      8 N          25.4470   50.4900   10.7660 N.am     12 SEL2        0.0000 
      9 N          24.7040   51.0570   13.4660 N.am      7 SEP2        0.0000 
     10 N          24.4170   49.5690   11.1815 N.am      2 SEC2        0.0000 
     11 N          23.3870   48.6480   11.5970 N.am      7 SEP2        0.0000 
     12 Zn         22.8860   49.6140    9.5885 Zn        4 ZIC7        0.0000 
     13 Zn         23.7180   49.8820    9.0170 Zn       14 ZIL7        0.0000 
     14 Zn         22.0540   49.3460   10.1600 Zn        9 ZIP7        0.0000 
     15 N          23.4895   49.6810    7.5565 N.am      2 SEC2        0.0000 
     16 N          23.7180   49.8820    9.0170 N.am     12 SEL2        0.0000 
     17 N          23.2610   49.4800    6.0960 N.am      7 SEP2        0.0000 
     18 NZ         23.4040   51.1515   12.1965 N.4       3 LYC4        0.0000 
     19 NZ         22.1040   51.2460   10.9270 N.4      13 LYL4        0.0000 
     20 Zn         22.0790   50.2960   10.5435 Zn        4 ZIC7        0.0000 
     21 Zn         22.1040   51.2460   10.9270 Zn       14 ZIL7        0.0000 
     22 N          21.2070   51.7250   11.9315 N.am      2 SEC2        0.0000 
     23 N          22.1040   51.2460   10.9270 N.am     12 SEL2        0.0000 
     24 N          20.3100   52.2040   12.9360 N.am      7 SEP2        0.0000 
     25 N          24.7330   52.9855    8.4385 N.am      2 SEC2        0.0000 
     26 N          24.0140   52.2840    9.7360 N.am     12 SEL2        0.0000 
     27 Zn         21.4190   49.6975    9.4385 Zn        4 ZIC7        0.0000 
     28 Zn         20.7840   50.0490    8.7170 Zn       14 ZIL7        0.0000 
     29 N          19.8570   49.0185    9.3665 N.am      2 SEC2        0.0000 
     30 N          20.7840   50.0490    8.7170 N.am     12 SEL2        0.0000 
     31 N          18.9300   47.9880   10.0160 N.am      7 SEP2        0.0000 
     32 N          20.6300   50.1285    5.9695 N.am      2 SEC2        0.0000 
     33 N          20.7180   51.4170    6.5640 N.am     12 SEL2        0.0000 
     34 N          20.5420   48.8400    5.3750 N.am      7 SEP2        0.0000 
     35 CA         17.8565   52.1180    7.2375 C.3       5 GLC5        0.0000 
     36 CA         19.0810   53.3990    8.0710 C.3      15 GLL5        0.0000 
     37 CA         16.6320   50.8370    6.4040 C.3      10 GLP5        0.0000 
     38 CA         16.5215   55.5515    9.0910 C.3       5 GLC5        0.0000 
     39 CA         18.2410   54.1560    9.0640 C.3      15 GLL5        0.0000 
     40 CA         14.8020   56.9470    9.1180 C.3      10 GLP5        0.0000 
     41 CA         18.9565   52.9635   11.9400 C.3       5 GLC5        0.0000 
     42 CA         18.8140   54.1860   10.4760 C.3      15 GLL5        0.0000 
     43 CA         19.0990   51.7410   13.4040 C.3      10 GLP5        0.0000 
     44 CA         18.1105   53.5830   12.7905 C.3       5 GLC5        0.0000 
     45 CA         17.5610   54.5160   11.2540 C.3      15 GLL5        0.0000 
     46 CA         18.6600   52.6500   14.3270 C.3      10 GLP5        0.0000 
     47 CA         16.3005   55.5410   12.5015 C.3       5 GLC5        0.0000 
     48 CA         15.0400   56.5660   13.7490 C.3      10 GLP5        0.0000 
     49 CA         17.8040   52.7295   11.9710 C.3       5 GLC5        0.0000 
     50 CA         16.5090   53.7180   10.5380 C.3      15 GLL5        0.0000 
     51 CA         14.9415   53.0405    9.9155 C.3       5 GLC5        0.0000 
     52 CA         13.3740   52.3630    9.2930 C.3      10 GLP5        0.0000 
     53 CA         16.9110   49.3340   12.2800 C.3       5 GLC5        0.0000 
     54 CA         15.3780   50.6880   12.1710 C.3      15 GLL5        0.0000 
     55 CA         18.4440   47.9800   12.3890 C.3      10 GLP5        0.0000 
     56 CA         17.2385   51.2145   12.7875 C.3       5 GLC5        0.0000 
     57 CA         13.6045   49.6680   11.4200 C.3       5 GLC5        0.0000 
     58 CA         11.8310   48.6480   10.6690 C.3      10 GLP5        0.0000 
     59 CA         15.9780   51.4350   14.1880 C.3       5 GLC5        0.0000 
     60 CA         14.5740   50.1730   13.2710 C.3      15 GLL5        0.0000 
     61 CA         17.3820   52.6970   15.1050 C.3      10 GLP5        0.0000 
     62 CA         14.0965   50.0430   15.3205 C.3       5 GLC5        0.0000 
     63 CA         13.6190   49.9130   17.3700 C.3      10 GLP5        0.0000 
     64 CA         12.7910   49.5610   12.6180 C.3       5 GLC5        0.0000 
     65 CA         11.0080   48.9490   11.9650 C.3      10 GLP5        0.0000 
     66 O          13.3650   48.1440   14.2025 O.2       1 ALC1        0.0000 
     67 O          14.4570   48.8550   13.4360 O.2      11 ALL1        0.0000 
     68 O          12.2730   47.4330   14.9690 O.2       6 ALP1        0.0000 
     69 N          12.5435   50.8625   14.5065 N.am      2 SEC2        0.0000 
     70 N          13.9610   50.9940   14.0900 N.am     12 SEL2        0.0000 
     71 N          11.1260   50.7310   14.9230 N.am      7 SEP2        0.0000 
     72 CA         15.7320   52.5215   14.5275 C.3       5 GLC5        0.0000 
     73 CA         14.0820   52.3460   13.9500 C.3      15 GLL5        0.0000 
     74 CA         14.0740   51.8560   15.7405 C.3       5 GLC5        0.0000 
     75 CA         14.0660   51.3660   17.5310 C.3      10 GLP5        0.0000 
     76 CA         12.6385   53.1930   13.3890 C.3       5 GLC5        0.0000 
     77 CA         11.1950   54.0400   12.8280 C.3      10 GLP5        0.0000 
     78 CA         14.3645   54.2395   14.5605 C.3       5 GLC5        0.0000 
     79 CA         14.6470   56.1330   15.1710 C.3      10 GLP5        0.0000 
     80 N          13.9795   54.2245   12.8230 N.am      2 SEC2        0.0000 
     81 N          14.8300   52.9720   12.9990 N.am     12 SEL2        0.0000 
     82 N          13.1290   55.4770   12.6470 N.am      7 SEP2        0.0000 
     83 CA         16.4305   52.4240   13.6065 C.3       5 GLC5        0.0000 
     84 CA         15.4790   52.1510   12.1080 C.3      15 GLL5        0.0000 
     85 CA         15.9185   55.5320   10.0070 C.3       5 GLC5        0.0000 
@<TRIPOS>BOND
@<TRIPOS>SUBSTRUCTURE
     1 ALC1       66 GROUP        1 X    ALC  0     ROOT ALC X 1
     2 SEC2        1 GROUP        1 X    SEC  0     **** SEC X 2
     3 LYC4        4 GROUP        1 X    LYC  0     **** LYC X 4
     4 ZIC7       12 GROUP        1 X    ZIC  0     **** ZIC X 5
     5 GLC5       35 GROUP        1 X    GLC  0     **** GLC X 6
     6 ALP1       68 GROUP        1 Y    ALP  0     ROOT ALP Y 8
     7 SEP2        3 GROUP        1 Y    SEP  0     **** SEP Y 9
     8 LYP4        6 GROUP        1 Y    LYP  0     **** LYP Y 11
     9 ZIP7       14 GROUP        1 Y    ZIP  0     **** ZIP Y 12
    10 GLP5       37 GROUP        1 Y    GLP  0     **** GLP Y 13
    11 ALL1       67 GROUP        1 Z    ALL  0     ROOT ALL Z 15
    12 SEL2        2 GROUP        1 Z    SEL  0     **** SEL Z 16
    13 LYL4        5 GROUP        1 Z    LYL  0     **** LYL Z 18
    14 ZIL7       13 GROUP        1 Z    ZIL  0     **** ZIL Z 19
    15 GLL5       36 GROUP        1 Z    GLL  0     **** GLL Z 20
@<TRIPOS>SET

