#    Name: 3ehg_ATP_1_ligand
#    Modification time : Tue Mar 25 01:52:11 2014

@<TRIPOS>MOLECULE
3ehg_ATP_1_ligand
   43    45     1     0     0
SMALL
NO_CHARGES


@<TRIPOS>ATOM
      1 PG         24.7680   50.8790    9.4740 P.3       1 ATP1        0.0000 
      2 O1G        25.7100   51.3080    8.3500 O.co2     1 ATP1        0.0000 
      3 O2G        25.4470   50.4900   10.7660 O.co2     1 ATP1        0.0000 
      4 O3G        23.7180   49.8820    9.0170 O.co2     1 ATP1        0.0000 
      5 PB         22.4760   52.4420   10.0670 P.3       1 ATP1        0.0000 
      6 O1B        22.2550   53.8220   10.5660 O.co2     1 ATP1        0.0000 
      7 O2B        22.1040   51.2460   10.9270 O.co2     1 ATP1        0.0000 
      8 O3B        24.0140   52.2840    9.7360 O.3       1 ATP1        0.0000 
      9 PA         20.6800   51.3720    8.0610 P.3       1 ATP1        0.0000 
     10 O1A        20.7840   50.0490    8.7170 O.co2     1 ATP1        0.0000 
     11 O2A        20.7180   51.4170    6.5640 O.co2     1 ATP1        0.0000 
     12 O3A        21.8750   52.3540    8.5880 O.3       1 ATP1        0.0000 
     13 O5'        19.3530   52.0590    8.5550 O.3       1 ATP1        0.0000 
     14 C5'        19.0810   53.3990    8.0710 C.3       1 ATP1        0.0000 
     15 C4'        18.2410   54.1560    9.0640 C.3       1 ATP1        0.0000 
     16 O4'        16.9480   53.5520    9.1870 O.3       1 ATP1        0.0000 
     17 C3'        18.8140   54.1860   10.4760 C.3       1 ATP1        0.0000 
     18 O3'        19.8970   55.1380   10.7270 O.3       1 ATP1        0.0000 
     19 C2'        17.5610   54.5160   11.2540 C.3       1 ATP1        0.0000 
     20 O2'        17.2260   55.9180   11.1880 O.3       1 ATP1        0.0000 
     21 C1'        16.5090   53.7180   10.5380 C.3       1 ATP1        0.0000 
     22 N9         16.2250   52.3530   11.0580 N.pl3     1 ATP1        0.0000 
     23 C8         16.6420   51.2010   10.5120 C.2       1 ATP1        0.0000 
     24 N7         16.1560   50.1330   11.1860 N.2       1 ATP1        0.0000 
     25 C5         15.3780   50.6880   12.1710 C.ar      1 ATP1        0.0000 
     26 C6         14.5740   50.1730   13.2710 C.ar      1 ATP1        0.0000 
     27 N6         14.4570   48.8550   13.4360 N.pl3     1 ATP1        0.0000 
     28 N1         13.9610   50.9940   14.0900 N.ar      1 ATP1        0.0000 
     29 C2         14.0820   52.3460   13.9500 C.ar      1 ATP1        0.0000 
     30 N3         14.8300   52.9720   12.9990 N.ar      1 ATP1        0.0000 
     31 C4         15.4790   52.1510   12.1080 C.ar      1 ATP1        0.0000 
     32 H          18.5458   53.3662    7.1123 H         1 ATP1        0.0000 
     33 H          20.0160   53.9524    7.9090 H         1 ATP1        0.0000 
     34 H          18.1282   55.1850    8.7334 H         1 ATP1        0.0000 
     35 H          19.0780   53.1709   10.7350 H         1 ATP1        0.0000 
     36 H          17.6549   54.1491   12.2374 H         1 ATP1        0.0000 
     37 H          15.5795   54.2936   10.5259 H         1 ATP1        0.0000 
     38 H          17.2268   51.1341    9.7221 H         1 ATP1        0.0000 
     39 H          15.2282   48.3019   13.1208 H         1 ATP1        0.0000 
     40 H          13.6086   48.5383   13.8601 H         1 ATP1        0.0000 
     41 H          13.5454   52.9639   14.6441 H         1 ATP1        0.0000 
     42 H          20.7366   54.5994   10.6557 H         1 ATP1        0.0000 
     43 H          17.7712   56.3484   11.9074 H         1 ATP1        0.0000 
@<TRIPOS>BOND
     1    2    1 ar   
     2    3    1 ar   
     3    4    1 ar   
     4    8    1 1    
     5    6    5 ar   
     6    7    5 ar   
     7    8    5 1    
     8   12    5 1    
     9   10    9 ar   
    10   11    9 ar   
    11   12    9 1    
    12   13    9 1    
    13   14   13 1    
    14   15   14 1    
    15   32   14 1    
    16   33   14 1    
    17   16   15 1    
    18   17   15 1    
    19   34   15 1    
    20   21   16 1    
    21   18   17 1    
    22   19   17 1    
    23   35   17 1    
    24   42   18 1    
    25   20   19 1    
    26   21   19 1    
    27   36   19 1    
    28   43   20 1    
    29   22   21 1    
    30   37   21 1    
    31   23   22 1    
    32   31   22 1    
    33   24   23 2    
    34   38   23 1    
    35   25   24 1    
    36   26   25 ar   
    37   31   25 ar   
    38   27   26 1    
    39   28   26 ar   
    40   39   27 1    
    41   40   27 1    
    42   29   28 ar   
    43   30   29 ar   
    44   41   29 1    
    45   31   30 ar   
@<TRIPOS>SUBSTRUCTURE
     1 ATP1        1 GROUP   
@<TRIPOS>SET

