#    Name: 3s55_NAD_4_INTS_M
#    Modification time : Tue Mar 25 12:11:45 2014

@<TRIPOS>MOLECULE
3s55_NAD_4_INTS_M
  119     0    12     0     0
SMALL
NO_CHARGES


@<TRIPOS>ATOM
      1 NZ         12.1700  -33.5535   56.1545 N.4       3 LYC4        0.0000 
      2 NZ         13.0360  -32.6190   55.5050 N.4      11 LYL4        0.0000 
      3 NZ         11.0700  -34.2840   58.1170 N.4       7 LYP4        0.0000 
      4 N          12.1700  -33.5535   56.1545 N.am      2 SEC2        0.0000 
      5 N          13.0360  -32.6190   55.5050 N.am     10 SEL2        0.0000 
      6 N          11.3040  -34.4880   56.8040 N.am      6 SEP2        0.0000 
      7 NZ         13.0080  -32.9590   58.2905 N.4       3 LYC4        0.0000 
      8 NZ         14.2550  -32.5660   57.8160 N.4      11 LYL4        0.0000 
      9 N          13.0080  -32.9590   58.2905 N.am      2 SEC2        0.0000 
     10 N          14.2550  -32.5660   57.8160 N.am     10 SEL2        0.0000 
     11 N          11.7610  -33.3520   58.7650 N.am      6 SEP2        0.0000 
     12 CA         11.4740  -27.1535   56.8645 C.3       4 GLC5        0.0000 
     13 CA         11.6290  -29.0340   56.3970 C.3      12 GLL5        0.0000 
     14 CA         11.3190  -25.2730   57.3320 C.3       8 GLP5        0.0000 
     15 CA         11.4055  -30.8485   58.6590 C.3       4 GLC5        0.0000 
     16 CA         10.6400  -30.0900   56.8970 C.3      12 GLL5        0.0000 
     17 CA         12.1710  -31.6070   60.4210 C.3       8 GLP5        0.0000 
     18 O           9.7755  -28.6010   58.4935 O.2       1 ALC1        0.0000 
     19 O          10.3520  -29.8850   58.2900 O.2       9 ALL1        0.0000 
     20 O           9.1990  -27.3170   58.6970 O.2       5 ALP1        0.0000 
     21 CA          8.1925  -31.6080   55.7395 C.3       4 GLC5        0.0000 
     22 CA          9.4090  -29.8880   56.0300 C.3      12 GLL5        0.0000 
     23 CA          6.9760  -33.3280   55.4490 C.3       8 GLP5        0.0000 
     24 N           7.8465  -31.4505   57.4905 N.am      2 SEC2        0.0000 
     25 N           8.1460  -30.0650   56.6960 N.am     10 SEL2        0.0000 
     26 N           7.5470  -32.8360   58.2850 N.am      6 SEP2        0.0000 
     27 O           7.6940  -29.1140   57.3855 O.2       1 ALC1        0.0000 
     28 O           8.1460  -30.0650   56.6960 O.2       9 ALL1        0.0000 
     29 O           7.2420  -28.1630   58.0750 O.2       5 ALP1        0.0000 
     30 CA         10.4500  -26.8665   56.4415 C.3       4 GLC5        0.0000 
     31 CA          9.5810  -28.4600   55.5510 C.3      12 GLL5        0.0000 
     32 CA          5.1365  -24.8480   52.6520 C.3       4 GLC5        0.0000 
     33 CA          6.8110  -26.2070   52.3140 C.3      12 GLL5        0.0000 
     34 CA          3.4620  -23.4890   52.9900 C.3       8 GLP5        0.0000 
     35 CA          7.4865  -24.6515   51.5240 C.3       4 GLC5        0.0000 
     36 CA          8.1620  -23.0960   50.7340 C.3       8 GLP5        0.0000 
     37 O           5.0900  -25.5810   50.7775 O.2       1 ALC1        0.0000 
     38 O           6.2620  -26.2760   51.0660 O.2       9 ALL1        0.0000 
     39 O           3.9180  -24.8860   50.4890 O.2       5 ALP1        0.0000 
     40 O           6.7820  -26.8575   49.6665 O.2       1 ALC1        0.0000 
     41 O           7.3020  -27.4390   48.2670 O.2       5 ALP1        0.0000 
     42 N           6.0110  -23.8220   52.5625 N.am      2 SEC2        0.0000 
     43 N           6.5530  -25.1400   53.1360 N.am     10 SEL2        0.0000 
     44 N           5.4690  -22.5040   51.9890 N.am      6 SEP2        0.0000 
     45 CA          6.8935  -25.0610   56.3915 C.3       4 GLC5        0.0000 
     46 CA          7.0620  -25.0590   54.3640 C.3      12 GLL5        0.0000 
     47 CA          6.7250  -25.0630   58.4190 C.3       8 GLP5        0.0000 
     48 CA          5.7930  -26.3675   54.7065 C.3       4 GLC5        0.0000 
     49 CA          4.5240  -27.6760   55.0490 C.3       8 GLP5        0.0000 
     50 CA          5.2620  -24.2740   53.6770 C.3       4 GLC5        0.0000 
     51 CA          7.7075  -23.3110   53.5440 C.3       4 GLC5        0.0000 
     52 CA          8.3530  -21.5630   52.7240 C.3       8 GLP5        0.0000 
     53 CA          8.9200  -24.7465   53.9155 C.3       4 GLC5        0.0000 
     54 CA         10.7780  -24.4340   53.4670 C.3       8 GLP5        0.0000 
     55 N           6.6090  -26.1560   55.8265 N.am      2 SEC2        0.0000 
     56 N           7.8610  -26.0350   54.8200 N.am     10 SEL2        0.0000 
     57 N           5.3570  -26.2770   56.8330 N.am      6 SEP2        0.0000 
     58 N          17.8155  -33.0505   55.9640 N.am      2 SEC2        0.0000 
     59 N          17.7840  -31.9290   55.3230 N.am     10 SEL2        0.0000 
     60 N          17.8470  -34.1720   56.6050 N.am      6 SEP2        0.0000 
     61 N          17.3405  -29.7075   58.2165 N.am      2 SEC2        0.0000 
     62 N          16.7910  -30.1120   56.9580 N.am     10 SEL2        0.0000 
     63 N          17.8900  -29.3030   59.4750 N.am      6 SEP2        0.0000 
     64 CA         18.3875  -26.6815   52.6450 C.3       4 GLC5        0.0000 
     65 CA         17.0310  -27.9360   53.3150 C.3      12 GLL5        0.0000 
     66 CA         19.7440  -25.4270   51.9750 C.3       8 GLP5        0.0000 
     67 CA         14.4275  -28.0585   51.4330 C.3       4 GLC5        0.0000 
     68 CA         16.2180  -28.3340   52.0720 C.3      12 GLL5        0.0000 
     69 CA         12.6370  -27.7830   50.7940 C.3       8 GLP5        0.0000 
     70 N          16.6865  -27.0910   49.7745 N.am      2 SEC2        0.0000 
     71 N          16.1330  -27.2370   51.1370 N.am     10 SEL2        0.0000 
     72 N          17.2400  -26.9450   48.4120 N.am      6 SEP2        0.0000 
     73 CA         17.2805  -28.6390   49.3405 C.3       4 GLC5        0.0000 
     74 CA         17.0070  -29.4250   51.4030 C.3      12 GLL5        0.0000 
     75 CA         17.5540  -27.8530   47.2780 C.3       8 GLP5        0.0000 
     76 N          16.9885  -28.1590   49.2075 N.am      2 SEC2        0.0000 
     77 N          16.7370  -29.3730   50.0030 N.am     10 SEL2        0.0000 
     78 O          17.5845  -30.1855   49.1780 O.2       1 ALC1        0.0000 
     79 O          16.7370  -29.3730   50.0030 O.2       9 ALL1        0.0000 
     80 O          18.4320  -30.9980   48.3530 O.2       5 ALP1        0.0000 
     81 CA         19.4610  -29.2810   53.5215 C.3       4 GLC5        0.0000 
     82 CA         18.4060  -28.9420   51.7400 C.3      12 GLL5        0.0000 
     83 CA         20.5160  -29.6200   55.3030 C.3       8 GLP5        0.0000 
     84 CA         19.0750  -27.1845   51.8575 C.3       4 GLC5        0.0000 
     85 N          22.5535  -34.2750   53.5820 N.am      2 SEC2        0.0000 
     86 N          21.4330  -34.0750   52.6650 N.am     10 SEL2        0.0000 
     87 N          23.6740  -34.4750   54.4990 N.am      6 SEP2        0.0000 
     88 O          20.6290  -34.3925   55.0155 O.2       1 ALC1        0.0000 
     89 O          19.7690  -33.3770   54.0040 O.2       9 ALL1        0.0000 
     90 O          21.4890  -35.4080   56.0270 O.2       5 ALP1        0.0000 
     91 CA         20.1070  -27.5105   51.3490 C.3       4 GLC5        0.0000 
     92 CA         20.4700  -29.5940   50.7230 C.3      12 GLL5        0.0000 
     93 CA         21.9805  -28.3660   50.9825 C.3       4 GLC5        0.0000 
     94 CA         23.4910  -27.1380   51.2420 C.3       8 GLP5        0.0000 
     95 CA          9.0828  -30.5910   58.2122 C.3       4 GLC5        0.0000 
     96 CA          8.1410  -31.1930   59.9610 C.3       8 GLP5        0.0000 
     97 CA          8.2585  -26.7398   51.0147 C.3       4 GLC5        0.0000 
     98 CA          7.6330  -27.2320   52.7790 C.3      12 GLL5        0.0000 
     99 CA          9.2950  -26.7600   49.4830 C.3       8 GLP5        0.0000 
    100 CA          6.1022  -27.2974   54.1756 C.3       4 GLC5        0.0000 
    101 CA          9.2293  -25.6764   53.3846 C.3       4 GLC5        0.0000 
    102 CA          8.1390  -27.1180   54.0580 C.3      12 GLL5        0.0000 
    103 CA         18.6305  -28.9230   54.6342 C.3       4 GLC5        0.0000 
    104 CA         16.4590  -28.5160   54.6160 C.3      12 GLL5        0.0000 
    105 CA         15.8008  -30.5723   51.6823 C.3       4 GLC5        0.0000 
    106 CA         14.9890  -32.2650   51.6270 C.3       8 GLP5        0.0000 
    107 CA         20.2645  -30.5667   53.7785 C.3       4 GLC5        0.0000 
    108 CA         19.4850  -31.0680   52.3350 C.3      12 GLL5        0.0000 
    109 CA         18.2565  -32.3483   51.9260 C.3       4 GLC5        0.0000 
    110 CA         16.5000  -33.1830   51.5980 C.3       8 GLP5        0.0000 
    111 CA         22.3625  -31.7242   53.3935 C.3       4 GLC5        0.0000 
    112 CA         20.5410  -31.9590   52.1730 C.3      12 GLL5        0.0000 
    113 CA         23.6730  -31.6380   55.0740 C.3       8 GLP5        0.0000 
    114 CA         22.8672  -29.9522   51.8190 C.3       4 GLC5        0.0000 
    115 CA         21.5630  -31.6620   51.2530 C.3      12 GLL5        0.0000 
    116 CA         24.1800  -28.8430   52.7470 C.3       8 GLP5        0.0000 
    117 CA         21.3905  -29.5962   48.7960 C.3       4 GLC5        0.0000 
    118 CA         21.5460  -30.4610   50.5290 C.3      12 GLL5        0.0000 
    119 CA         21.7730  -29.1650   46.9660 C.3       8 GLP5        0.0000 
@<TRIPOS>BOND
@<TRIPOS>SUBSTRUCTURE
     1 ALC1       18 GROUP        1 X    ALC  0     ROOT ALC X 1
     2 SEC2        4 GROUP        1 X    SEC  0     **** SEC X 2
     3 LYC4        1 GROUP        1 X    LYC  0     **** LYC X 4
     4 GLC5       12 GROUP        1 X    GLC  0     **** GLC X 6
     5 ALP1       20 GROUP        1 Y    ALP  0     ROOT ALP Y 8
     6 SEP2        6 GROUP        1 Y    SEP  0     **** SEP Y 9
     7 LYP4        3 GROUP        1 Y    LYP  0     **** LYP Y 11
     8 GLP5       14 GROUP        1 Y    GLP  0     **** GLP Y 13
     9 ALL1       19 GROUP        1 Z    ALL  0     ROOT ALL Z 15
    10 SEL2        5 GROUP        1 Z    SEL  0     **** SEL Z 16
    11 LYL4        2 GROUP        1 Z    LYL  0     **** LYL Z 18
    12 GLL5       13 GROUP        1 Z    GLL  0     **** GLL Z 20
@<TRIPOS>SET

