#    Name: 3s55_NAD_4_ligand
#    Modification time : Tue Mar 25 12:11:46 2014

@<TRIPOS>MOLECULE
3s55_NAD_4_ligand
   70    74     1     0     0
SMALL
NO_CHARGES


@<TRIPOS>ATOM
      1 PA         13.9590  -31.9400   56.4510 P.3       1 NAD279      0.0000 
      2 O1A        13.0360  -32.6190   55.5050 O.co2     1 NAD279      0.0000 
      3 O2A        14.2550  -32.5660   57.8160 O.co2     1 NAD279      0.0000 
      4 O5B        13.5080  -30.4320   56.7100 O.3       1 NAD279      0.0000 
      5 C5B        12.8130  -29.7020   55.7150 C.3       1 NAD279      0.0000 
      6 C4B        11.6290  -29.0340   56.3970 C.3       1 NAD279      0.0000 
      7 O4B        10.9680  -28.2870   55.3910 O.3       1 NAD279      0.0000 
      8 C3B        10.6400  -30.0900   56.8970 C.3       1 NAD279      0.0000 
      9 O3B        10.3520  -29.8850   58.2900 O.3       1 NAD279      0.0000 
     10 C2B         9.4090  -29.8880   56.0300 C.3       1 NAD279      0.0000 
     11 O2B         8.1460  -30.0650   56.6960 O.3       1 NAD279      0.0000 
     12 C1B         9.5810  -28.4600   55.5510 C.3       1 NAD279      0.0000 
     13 N9A         8.8750  -28.2000   54.2780 N.pl3     1 NAD279      0.0000 
     14 C8A         8.8470  -28.9940   53.1710 C.2       1 NAD279      0.0000 
     15 N7A         8.0970  -28.3930   52.2490 N.2       1 NAD279      0.0000 
     16 C5A         7.6330  -27.2320   52.7790 C.ar      1 NAD279      0.0000 
     17 C6A         6.8110  -26.2070   52.3140 C.ar      1 NAD279      0.0000 
     18 N6A         6.2620  -26.2760   51.0660 N.pl3     1 NAD279      0.0000 
     19 N1A         6.5530  -25.1400   53.1360 N.ar      1 NAD279      0.0000 
     20 C2A         7.0620  -25.0590   54.3640 C.ar      1 NAD279      0.0000 
     21 N3A         7.8610  -26.0350   54.8200 N.ar      1 NAD279      0.0000 
     22 C4A         8.1390  -27.1180   54.0580 C.ar      1 NAD279      0.0000 
     23 O3         15.3450  -31.8560   55.6000 O.3       1 NAD279      0.0000 
     24 PN         16.6830  -30.9770   55.7300 P.3       1 NAD279      0.0000 
     25 O1N        17.7840  -31.9290   55.3230 O.co2     1 NAD279      0.0000 
     26 O2N        16.7910  -30.1120   56.9580 O.co2     1 NAD279      0.0000 
     27 O5D        16.3750  -29.9470   54.5260 O.3       1 NAD279      0.0000 
     28 C5D        16.4590  -28.5160   54.6160 C.3       1 NAD279      0.0000 
     29 C4D        17.0310  -27.9360   53.3150 C.3       1 NAD279      0.0000 
     30 O4D        18.3650  -28.4190   53.0750 O.3       1 NAD279      0.0000 
     31 C3D        16.2180  -28.3340   52.0720 C.3       1 NAD279      0.0000 
     32 O3D        16.1330  -27.2370   51.1370 O.3       1 NAD279      0.0000 
     33 C2D        17.0070  -29.4250   51.4030 C.3       1 NAD279      0.0000 
     34 O2D        16.7370  -29.3730   50.0030 O.3       1 NAD279      0.0000 
     35 C1D        18.4060  -28.9420   51.7400 C.3       1 NAD279      0.0000 
     36 N1N        19.4730  -29.9170   51.5970 N.pl3     1 NAD279      0.0000 
     37 C2N        19.4850  -31.0680   52.3350 C.ar      1 NAD279      0.0000 
     38 C3N        20.5410  -31.9590   52.1730 C.ar      1 NAD279      0.0000 
     39 C7N        20.6070  -33.2290   52.9740 C.2       1 NAD279      0.0000 
     40 O7N        21.4330  -34.0750   52.6650 O.2       1 NAD279      0.0000 
     41 N7N        19.7690  -33.3770   54.0040 N.am      1 NAD279      0.0000 
     42 C4N        21.5630  -31.6620   51.2530 C.ar      1 NAD279      0.0000 
     43 C5N        21.5460  -30.4610   50.5290 C.ar      1 NAD279      0.0000 
     44 C6N        20.4700  -29.5940   50.7230 C.ar      1 NAD279      0.0000 
     45 H          12.4278  -30.3444   54.9267 H         1 NAD279      0.0000 
     46 H          13.4281  -28.9229   55.2709 H         1 NAD279      0.0000 
     47 H          11.9576  -28.4423   57.1932 H         1 NAD279      0.0000 
     48 H          11.0502  -31.0477   56.6886 H         1 NAD279      0.0000 
     49 H           9.5159  -30.5206   55.1594 H         1 NAD279      0.0000 
     50 H           9.2048  -27.8078   56.3259 H         1 NAD279      0.0000 
     51 H           9.2987  -29.8424   53.0874 H         1 NAD279      0.0000 
     52 H           6.8010  -26.7565   50.3741 H         1 NAD279      0.0000 
     53 H           5.3692  -25.8400   50.9533 H         1 NAD279      0.0000 
     54 H           6.8422  -24.2394   54.9737 H         1 NAD279      0.0000 
     55 H          17.1132  -28.2002   55.4370 H         1 NAD279      0.0000 
     56 H          15.4741  -28.0626   54.7778 H         1 NAD279      0.0000 
     57 H          17.0298  -26.8588   53.3757 H         1 NAD279      0.0000 
     58 H          15.2841  -28.7026   52.3656 H         1 NAD279      0.0000 
     59 H          16.8195  -30.3205   51.8725 H         1 NAD279      0.0000 
     60 H          18.6078  -28.0810   51.0557 H         1 NAD279      0.0000 
     61 H          18.7343  -31.2806   52.9988 H         1 NAD279      0.0000 
     62 H          19.8283  -34.2442   54.4984 H         1 NAD279      0.0000 
     63 H          19.1577  -32.6073   54.1880 H         1 NAD279      0.0000 
     64 H          22.3289  -32.3331   51.1114 H         1 NAD279      0.0000 
     65 H          22.2930  -30.2331   49.8861 H         1 NAD279      0.0000 
     66 H          20.4405  -28.7050   50.1950 H         1 NAD279      0.0000 
     67 H           9.9682  -28.9630   58.3419 H         1 NAD279      0.0000 
     68 H           8.2045  -29.4967   57.5168 H         1 NAD279      0.0000 
     69 H          15.2639  -27.3699   50.6606 H         1 NAD279      0.0000 
     70 H          17.3954  -30.0017   49.5891 H         1 NAD279      0.0000 
@<TRIPOS>BOND
     1    2    1 ar   
     2    3    1 ar   
     3    4    1 1    
     4   23    1 1    
     5    5    4 1    
     6    6    5 1    
     7   45    5 1    
     8   46    5 1    
     9    7    6 1    
    10    8    6 1    
    11   47    6 1    
    12   12    7 1    
    13    9    8 1    
    14   10    8 1    
    15   48    8 1    
    16   67    9 1    
    17   11   10 1    
    18   12   10 1    
    19   49   10 1    
    20   68   11 1    
    21   13   12 1    
    22   50   12 1    
    23   14   13 1    
    24   22   13 1    
    25   15   14 2    
    26   51   14 1    
    27   16   15 1    
    28   17   16 ar   
    29   22   16 ar   
    30   18   17 1    
    31   19   17 ar   
    32   52   18 1    
    33   53   18 1    
    34   20   19 ar   
    35   21   20 ar   
    36   54   20 1    
    37   22   21 ar   
    38   24   23 1    
    39   25   24 ar   
    40   26   24 ar   
    41   27   24 1    
    42   28   27 1    
    43   29   28 1    
    44   55   28 1    
    45   56   28 1    
    46   30   29 1    
    47   31   29 1    
    48   57   29 1    
    49   35   30 1    
    50   32   31 1    
    51   33   31 1    
    52   58   31 1    
    53   69   32 1    
    54   34   33 1    
    55   35   33 1    
    56   59   33 1    
    57   70   34 1    
    58   36   35 1    
    59   60   35 1    
    60   37   36 ar   
    61   44   36 ar   
    62   38   37 ar   
    63   61   37 1    
    64   39   38 1    
    65   42   38 ar   
    66   40   39 2    
    67   41   39 am   
    68   62   41 1    
    69   63   41 1    
    70   43   42 ar   
    71   64   42 1    
    72   44   43 ar   
    73   65   43 1    
    74   66   44 1    
@<TRIPOS>SUBSTRUCTURE
     1 NAD279      1 GROUP   
@<TRIPOS>SET

