#    Name: 3g8a_SAH_1_INTS_M
#    Modification time : Tue Mar 25 07:20:06 2014

@<TRIPOS>MOLECULE
3g8a_SAH_1_INTS_M
   62     0    12     0     0
SMALL
NO_CHARGES


@<TRIPOS>ATOM
      1 O          26.4690   11.6495  -18.0640 O.2       1 ALC1        0.0000 
      2 O          27.1030   12.7520  -17.7950 O.2       9 ALL1        0.0000 
      3 O          25.8350   10.5470  -18.3330 O.2       5 ALP1        0.0000 
      4 O          28.3305   12.4840  -16.9400 O.2       1 ALC1        0.0000 
      5 O          29.5580   12.2160  -16.0850 O.2       5 ALP1        0.0000 
      6 O          25.9515   13.4715  -17.0810 O.2       1 ALC1        0.0000 
      7 O          24.8000   14.1910  -16.3670 O.2       5 ALP1        0.0000 
      8 O          26.8970   11.9770  -16.5770 O.2       1 ALC1        0.0000 
      9 O          26.6910   11.2020  -15.3590 O.2       5 ALP1        0.0000 
     10 CA         28.1035   11.1550  -18.4125 C.3       4 GLC5        0.0000 
     11 CA         27.9600   13.2470  -18.8650 C.3      12 GLL5        0.0000 
     12 CA         28.2470    9.0630  -17.9600 C.3       8 GLP5        0.0000 
     13 NZ         29.8545   16.2095  -17.6005 N.4       3 LYC4        0.0000 
     14 NZ         29.4610   15.1070  -19.0990 N.4      11 LYL4        0.0000 
     15 NZ         30.2480   17.3120  -16.1020 N.4       7 LYP4        0.0000 
     16 NZ         29.0375   16.3485  -16.9375 N.4       3 LYC4        0.0000 
     17 NZ         27.8270   15.3850  -17.7730 N.4      11 LYL4        0.0000 
     18 CA         24.2515    9.8920  -19.4960 C.3       4 GLC5        0.0000 
     19 CA         24.0000   11.2250  -20.8890 C.3      12 GLL5        0.0000 
     20 CA         24.5030    8.5590  -18.1030 C.3       8 GLP5        0.0000 
     21 O          25.0645    8.7845  -23.1155 O.2       1 ALC1        0.0000 
     22 O          24.9790   10.4980  -22.9340 O.2       9 ALL1        0.0000 
     23 O          25.1500    7.0710  -23.2970 O.2       5 ALP1        0.0000 
     24 O          25.4515    9.3395  -22.2490 O.2       1 ALC1        0.0000 
     25 O          25.9240    8.1810  -21.5640 O.2       5 ALP1        0.0000 
     26 N          23.3550    8.3300  -24.8550 N.am      2 SEC2        0.0000 
     27 N          23.0590    8.8900  -23.3630 N.am     10 SEL2        0.0000 
     28 N          23.6510    7.7700  -26.3470 N.am      6 SEP2        0.0000 
     29 O          24.1045    7.9805  -23.3300 O.2       1 ALC1        0.0000 
     30 O          23.0590    8.8900  -23.3630 O.2       9 ALL1        0.0000 
     31 O          24.4915    8.5355  -22.4635 O.2       1 ALC1        0.0000 
     32 CA         23.5955    8.9325  -19.5535 C.3       4 GLC5        0.0000 
     33 CA         22.6880    9.3060  -21.0040 C.3      12 GLL5        0.0000 
     34 CA         18.9555    5.1310  -17.5195 C.3       4 GLC5        0.0000 
     35 CA         19.1870    6.2960  -19.2810 C.3      12 GLL5        0.0000 
     36 CA         18.7240    3.9660  -15.7580 C.3       8 GLP5        0.0000 
     37 O          16.8520    5.0295  -18.6915 O.2       1 ALC1        0.0000 
     38 O          17.9010    6.2200  -18.9560 O.2       9 ALL1        0.0000 
     39 O          15.8030    3.8390  -18.4270 O.2       5 ALP1        0.0000 
     40 N          19.5070    3.9040  -18.4585 N.am      2 SEC2        0.0000 
     41 N          19.9950    5.1880  -19.1330 N.am     10 SEL2        0.0000 
     42 N          19.0190    2.6200  -17.7840 N.am      6 SEP2        0.0000 
     43 CA         21.7910    5.2305  -17.4375 C.3       4 GLC5        0.0000 
     44 CA         21.3310    5.2690  -19.4700 C.3      12 GLL5        0.0000 
     45 CA         22.2510    5.1920  -15.4050 C.3       8 GLP5        0.0000 
     46 CA         22.7160    3.9560  -18.6900 C.3       4 GLC5        0.0000 
     47 CA         24.1010    2.6430  -17.9100 C.3       8 GLP5        0.0000 
     48 CA         23.3070    5.1265  -20.1975 C.3       4 GLC5        0.0000 
     49 CA         25.2830    4.9840  -20.9250 C.3       8 GLP5        0.0000 
     50 CA         21.1890    5.1550  -21.3540 C.3       4 GLC5        0.0000 
     51 CA         21.0470    5.0410  -23.2380 C.3       8 GLP5        0.0000 
     52 CA         20.2525    3.4845  -19.7450 C.3       4 GLC5        0.0000 
     53 CA         19.1740    1.7000  -20.0200 C.3       8 GLP5        0.0000 
     54 N          22.5980    5.6860  -21.1610 N.am      2 SEC2        0.0000 
     55 N          21.8660    6.4470  -19.9550 N.am     10 SEL2        0.0000 
     56 N          23.3300    4.9250  -22.3670 N.am      6 SEP2        0.0000 
     57 CA         22.7915    8.0515  -19.1050 C.3       4 GLC5        0.0000 
     58 CA         21.0800    7.5440  -20.1070 C.3      12 GLL5        0.0000 
     59 CA         28.0288   11.7847  -20.5362 C.3       4 GLC5        0.0000 
     60 CA         27.1870   13.2920  -20.1720 C.3      12 GLL5        0.0000 
     61 CA         28.4840   10.3000  -21.5540 C.3       8 GLP5        0.0000 
     62 CA         20.7257    6.2785  -21.5885 C.3       4 GLC5        0.0000 
@<TRIPOS>BOND
@<TRIPOS>SUBSTRUCTURE
     1 ALC1        1 GROUP        1 X    ALC  0     ROOT ALC X 1
     2 SEC2       26 GROUP        1 X    SEC  0     **** SEC X 2
     3 LYC4       13 GROUP        1 X    LYC  0     **** LYC X 4
     4 GLC5       10 GROUP        1 X    GLC  0     **** GLC X 6
     5 ALP1        3 GROUP        1 Y    ALP  0     ROOT ALP Y 8
     6 SEP2       28 GROUP        1 Y    SEP  0     **** SEP Y 9
     7 LYP4       15 GROUP        1 Y    LYP  0     **** LYP Y 11
     8 GLP5       12 GROUP        1 Y    GLP  0     **** GLP Y 13
     9 ALL1        2 GROUP        1 Z    ALL  0     ROOT ALL Z 15
    10 SEL2       27 GROUP        1 Z    SEL  0     **** SEL Z 16
    11 LYL4       14 GROUP        1 Z    LYL  0     **** LYL Z 18
    12 GLL5       11 GROUP        1 Z    GLL  0     **** GLL Z 20
@<TRIPOS>SET

