#    Name: 3g8a_SAH_1_ligand
#    Modification time : Tue Mar 25 07:20:06 2014

@<TRIPOS>MOLECULE
3g8a_SAH_1_ligand
   46    48     1     0     0
SMALL
NO_CHARGES


@<TRIPOS>ATOM
      1 N          27.1030   12.7520  -17.7950 N.4       1 SAH303      0.0000 
      2 CA         27.9600   13.2470  -18.8650 C.3       1 SAH303      0.0000 
      3 CB         27.1870   13.2920  -20.1720 C.3       1 SAH303      0.0000 
      4 CG         25.8850   14.0750  -20.0470 C.3       1 SAH303      0.0000 
      5 SD         24.8000   13.8280  -21.4760 S.3       1 SAH303      0.0000 
      6 C          28.4450   14.6600  -18.5590 C.2       1 SAH303      0.0000 
      7 O          29.4610   15.1070  -19.0990 O.co2     1 SAH303      0.0000 
      8 OXT        27.8270   15.3850  -17.7730 O.co2     1 SAH303      0.0000 
      9 C5'        23.7430   12.6880  -20.5390 C.3       1 SAH303      0.0000 
     10 C4'        24.0000   11.2250  -20.8890 C.3       1 SAH303      0.0000 
     11 O4'        23.1420   10.3570  -20.1630 O.3       1 SAH303      0.0000 
     12 C3'        23.7690   10.9540  -22.3680 C.3       1 SAH303      0.0000 
     13 O3'        24.9790   10.4980  -22.9340 O.3       1 SAH303      0.0000 
     14 C2'        22.7050    9.8720  -22.4190 C.3       1 SAH303      0.0000 
     15 O2'        23.0590    8.8900  -23.3630 O.3       1 SAH303      0.0000 
     16 C1'        22.6880    9.3060  -21.0040 C.3       1 SAH303      0.0000 
     17 N9         21.3540    8.8160  -20.5580 N.pl3     1 SAH303      0.0000 
     18 C8         20.1750    9.5230  -20.4910 C.2       1 SAH303      0.0000 
     19 N7         19.1980    8.7090  -20.0130 N.2       1 SAH303      0.0000 
     20 C5         19.7290    7.4880  -19.7710 C.ar      1 SAH303      0.0000 
     21 C6         19.1870    6.2960  -19.2810 C.ar      1 SAH303      0.0000 
     22 N6         17.9010    6.2200  -18.9560 N.pl3     1 SAH303      0.0000 
     23 N1         19.9950    5.1880  -19.1330 N.ar      1 SAH303      0.0000 
     24 C2         21.3310    5.2690  -19.4700 C.ar      1 SAH303      0.0000 
     25 N3         21.8660    6.4470  -19.9550 N.ar      1 SAH303      0.0000 
     26 C4         21.0800    7.5440  -20.1070 C.ar      1 SAH303      0.0000 
     27 H          28.8176   12.6157  -18.9998 H         1 SAH303      0.0000 
     28 H          26.9597   12.2687  -20.4932 H         1 SAH303      0.0000 
     29 H          27.8106   13.7558  -20.9452 H         1 SAH303      0.0000 
     30 H          26.0220   15.1372  -20.0439 H         1 SAH303      0.0000 
     31 H          25.2681   13.7541  -19.2324 H         1 SAH303      0.0000 
     32 H          22.7579   13.0248  -20.7986 H         1 SAH303      0.0000 
     33 H          23.9850   12.9352  -19.5234 H         1 SAH303      0.0000 
     34 H          25.0415   10.9991  -20.6753 H         1 SAH303      0.0000 
     35 H          23.3925   11.8336  -22.8152 H         1 SAH303      0.0000 
     36 H          21.7689   10.3365  -22.6046 H         1 SAH303      0.0000 
     37 H          23.4060    8.4847  -20.9771 H         1 SAH303      0.0000 
     38 H          20.0701   10.4455  -20.7445 H         1 SAH303      0.0000 
     39 H          17.4804    7.0643  -18.6240 H         1 SAH303      0.0000 
     40 H          17.4697    5.3253  -19.0727 H         1 SAH303      0.0000 
     41 H          21.9399    4.4378  -19.3583 H         1 SAH303      0.0000 
     42 H          26.4078   12.1205  -18.1381 H         1 SAH303      0.0000 
     43 H          27.6255   12.2619  -17.0973 H         1 SAH303      0.0000 
     44 H          26.6206   13.4953  -17.3316 H         1 SAH303      0.0000 
     45 H          25.2214    9.6845  -22.4054 H         1 SAH303      0.0000 
     46 H          23.8799    8.4572  -22.9906 H         1 SAH303      0.0000 
@<TRIPOS>BOND
     1    2    1 1    
     2   42    1 1    
     3   43    1 1    
     4   44    1 1    
     5    3    2 1    
     6    6    2 1    
     7   27    2 1    
     8    4    3 1    
     9   28    3 1    
    10   29    3 1    
    11    5    4 1    
    12   30    4 1    
    13   31    4 1    
    14    9    5 1    
    15    7    6 ar   
    16    8    6 ar   
    17   10    9 1    
    18   32    9 1    
    19   33    9 1    
    20   11   10 1    
    21   12   10 1    
    22   34   10 1    
    23   16   11 1    
    24   13   12 1    
    25   14   12 1    
    26   35   12 1    
    27   45   13 1    
    28   15   14 1    
    29   16   14 1    
    30   36   14 1    
    31   46   15 1    
    32   17   16 1    
    33   37   16 1    
    34   18   17 1    
    35   26   17 1    
    36   19   18 2    
    37   38   18 1    
    38   20   19 1    
    39   21   20 ar   
    40   26   20 ar   
    41   22   21 1    
    42   23   21 ar   
    43   39   22 1    
    44   40   22 1    
    45   24   23 ar   
    46   25   24 ar   
    47   41   24 1    
    48   26   25 ar   
@<TRIPOS>SUBSTRUCTURE
     1 SAH303      1 GROUP   
@<TRIPOS>SET

