#    Name: 2FQX_1_CAVITY_N1_6.mol2
#    Modification time : Mon Mar 10 13:08:21 2014

@<TRIPOS>MOLECULE
2FQX_1_CAVITY_N1_6.mol2
   81     0     7     0     0
SMALL
NO_CHARGES


@<TRIPOS>ATOM
      1 OG         33.9325   66.9062    2.3100 O.2       1 SER1        0.0000 
      2 N          34.1830   64.8299    1.9544 N.2       2 ALA2        0.0000 
      3 OG         33.0060   65.7545    2.0546 O.2       1 SER1        0.0000 
      4 CA         35.6105   61.8292    1.4987 C.3       6 GLY6        0.0000 
      5 N          34.4335   62.7537    1.5988 N.2       2 ALA2        0.0000 
      6 CZ         34.6841   60.6775    1.2433 C.ar      5 PHE5        0.0000 
      7 N          35.0289   65.7194    3.6845 N.2       2 ALA2        0.0000 
      8 CA         33.8519   66.6439    3.7847 C.3       6 GLY6        0.0000 
      9 N          35.2794   63.6432    3.3290 N.2       2 ALA2        0.0000 
     10 N          34.1025   64.5677    3.4291 N.2       2 ALA2        0.0000 
     11 OG         32.9255   65.4922    3.5292 O.2       1 SER1        0.0000 
     12 NZ         35.5300   61.5669    2.9734 N.2       4 LYS4        0.0000 
     13 NZ         34.3530   62.4914    3.0735 N.2       4 LYS4        0.0000 
     14 DU         33.1760   63.4159    3.1737 H         7 CUB7        0.0000 
     15 O          31.9991   64.3405    3.2738 O.2       2 ALA2        0.0000 
     16 CZ         33.4266   61.3397    2.8181 C.ar      5 PHE5        0.0000 
     17 CA         32.2496   62.2642    2.9182 C.3       6 GLY6        0.0000 
     18 CA         33.7714   66.3816    5.2594 C.3       6 GLY6        0.0000 
     19 CA         34.0219   64.3054    4.9038 C.3       6 GLY6        0.0000 
     20 CA         32.8449   65.2299    5.0039 C.3       6 GLY6        0.0000 
     21 CZ         34.2724   62.2292    4.5482 C.ar      5 PHE5        0.0000 
     22 CZ         33.0955   63.1537    4.6484 C.ar      5 PHE5        0.0000 
     23 CZ         33.3460   61.0774    4.2928 C.ar      5 PHE5        0.0000 
     24 CA         34.8678   65.1949    6.6339 C.3       6 GLY6        0.0000 
     25 NZ         35.1183   63.1186    6.2784 N.2       4 LYS4        0.0000 
     26 CA         33.9414   64.0431    6.3785 C.3       6 GLY6        0.0000 
     27 NZ         35.3689   61.0424    5.9228 N.2       4 LYS4        0.0000 
     28 CZ         35.6194   58.9661    5.5672 C.ar      5 PHE5        0.0000 
     29 CZ         34.4424   59.8906    5.6673 C.ar      5 PHE5        0.0000 
     30 CZ         34.6930   57.8144    5.3118 C.ar      5 PHE5        0.0000 
     31 CZ         33.5160   58.7389    5.4119 C.ar      5 PHE5        0.0000 
     32 CZ         33.7665   56.6627    5.0563 C.ar      5 PHE5        0.0000 
     33 CZ         32.5896   57.5872    5.1565 C.ar      5 PHE5        0.0000 
     34 NZ         37.3917   61.0073    7.5528 N.2       4 LYS4        0.0000 
     35 NZ         36.2147   61.9318    7.6529 N.2       4 LYS4        0.0000 
     36 CZ         35.0378   62.8563    7.7530 C.ar      5 PHE5        0.0000 
     37 CA         33.8608   63.7808    7.8532 C.3       6 GLY6        0.0000 
     38 NZ         36.4653   59.8556    7.2973 N.2       4 LYS4        0.0000 
     39 CZ         35.2883   60.7801    7.3975 C.ar      5 PHE5        0.0000 
     40 CA         35.5388   58.7038    7.0419 C.3       6 GLY6        0.0000 
     41 O          35.7894   56.6276    6.6863 O.2       2 ALA2        0.0000 
     42 CZ         34.6124   57.5521    6.7865 C.ar      5 PHE5        0.0000 
     43 OG         34.8630   55.4759    6.4309 O.2       1 SER1        0.0000 
     44 CA         33.6860   56.4004    6.5310 C.3       6 GLY6        0.0000 
     45 CZ         32.5090   57.3249    6.6312 C.ar      5 PHE5        0.0000 
     46 CZ         36.1342   61.6695    9.1276 C.ar      5 PHE5        0.0000 
     47 CZ         34.9572   62.5941    9.2277 C.ar      5 PHE5        0.0000 
     48 CZ         33.7803   63.5186    9.3279 C.ar      5 PHE5        0.0000 
     49 CA         37.5617   58.6688    8.6719 C.3       6 GLY6        0.0000 
     50 CZ         36.3847   59.5933    8.7720 C.ar      5 PHE5        0.0000 
     51 CZ         35.2078   60.5178    8.8722 C.ar      5 PHE5        0.0000 
     52 CZ         34.0308   61.4423    8.9723 C.ar      5 PHE5        0.0000 
     53 CA         36.6353   57.5170    8.4164 C.3       6 GLY6        0.0000 
     54 CA         35.4583   58.4416    8.5166 C.3       6 GLY6        0.0000 
     55 CZ         34.2813   59.3661    8.6167 C.ar      5 PHE5        0.0000 
     56 O          35.7088   56.3653    8.1610 O.2       2 ALA2        0.0000 
     57 CA         34.5319   57.2898    8.2612 C.3       6 GLY6        0.0000 
     58 CZ         33.3549   58.2143    8.3613 C.ar      5 PHE5        0.0000 
     59 OG         34.7824   55.2136    7.9056 O.2       1 SER1        0.0000 
     60 CA         33.6054   56.1381    8.0057 C.3       6 GLY6        0.0000 
     61 NZ         36.3042   59.3310   10.2467 N.2       4 LYS4        0.0000 
     62 CZ         35.1272   60.2555   10.3469 C.ar      5 PHE5        0.0000 
     63 CZ         33.9502   61.1800   10.4470 C.ar      5 PHE5        0.0000 
     64 CZ         32.7733   62.1046   10.5471 C.ar      5 PHE5        0.0000 
     65 NZ         35.3778   58.1793    9.9913 N.2       4 LYS4        0.0000 
     66 CA         34.2008   59.1038   10.0914 C.3       6 GLY6        0.0000 
     67 CZ         33.0238   60.0283   10.1916 C.ar      5 PHE5        0.0000 
     68 CA         35.6283   56.1030    9.6357 C.3       6 GLY6        0.0000 
     69 CA         34.4513   57.0276    9.7358 C.3       6 GLY6        0.0000 
     70 CZ         33.8697   60.9178   11.9217 C.ar      5 PHE5        0.0000 
     71 CA         32.6927   61.8423   12.0218 C.3       6 GLY6        0.0000 
     72 NZ         34.1202   58.8415   11.5661 N.2       4 LYS4        0.0000 
     73 CA         32.9433   59.7660   11.6663 C.3       6 GLY6        0.0000 
     74 CZ         31.7663   60.6906   11.7664 C.ar      5 PHE5        0.0000 
     75 CA         34.3708   56.7653   11.2105 C.3       6 GLY6        0.0000 
     76 NZ         33.7892   60.6555   13.3964 N.2       4 LYS4        0.0000 
     77 NZ         32.6122   61.5800   13.4965 N.2       4 LYS4        0.0000 
     78 OD1        34.0397   58.5793   13.0408 O.3       3 ASP3        0.0000 
     79 CZ         32.8627   59.5038   13.1410 C.ar      5 PHE5        0.0000 
     80 CA         31.6858   60.4283   13.2411 C.3       6 GLY6        0.0000 
     81 CZ         31.9363   58.3520   12.8855 C.ar      5 PHE5        0.0000 
@<TRIPOS>BOND
@<TRIPOS>SUBSTRUCTURE
     1 SER1        1 GROUP   
     2 ALA2        2 GROUP   
     3 ASP3       78 GROUP   
     4 LYS4       12 GROUP   
     5 PHE5        6 GROUP   
     6 GLY6        4 GROUP   
     7 CUB7       14 GROUP   
@<TRIPOS>SET

