#    Name: 2fqx_GMP_1_INTS_M
#    Modification time : Tue Mar 25 13:03:29 2014

@<TRIPOS>MOLECULE
2fqx_GMP_1_INTS_M
   50     0     9     0     0
SMALL
NO_CHARGES


@<TRIPOS>ATOM
      1 N          30.5850   63.3240   12.5730 N.am      2 SEC2        0.0000 
      2 N          31.4040   62.4540   13.3650 N.am      8 SEL2        0.0000 
      3 N          29.7660   64.1940   11.7810 N.am      5 SEP2        0.0000 
      4 O          32.2125   62.9140   14.3480 O.2       1 ALC1        0.0000 
      5 O          31.4040   62.4540   13.3650 O.2       7 ALL1        0.0000 
      6 O          33.0210   63.3740   15.3310 O.2       4 ALP1        0.0000 
      7 CA         30.3245   62.1665   15.0305 C.3       3 GLC5        0.0000 
      8 CA         31.1240   61.0890   13.6970 C.3       9 GLL5        0.0000 
      9 CA         29.5250   63.2440   16.3640 C.3       6 GLP5        0.0000 
     10 CA         31.1165   58.7985   11.9605 C.3       3 GLC5        0.0000 
     11 CA         32.1240   60.1230   13.0500 C.3       9 GLL5        0.0000 
     12 CA         30.1090   57.4740   10.8710 C.3       6 GLP5        0.0000 
     13 CA         31.3930   60.4320   10.9470 C.3       3 GLC5        0.0000 
     14 CA         30.6620   60.7410    8.8440 C.3       6 GLP5        0.0000 
     15 CA         34.6065   62.0400   13.2680 C.3       3 GLC5        0.0000 
     16 CA         33.5730   60.4900   13.3730 C.3       9 GLL5        0.0000 
     17 CA         35.6400   63.5900   13.1630 C.3       6 GLP5        0.0000 
     18 N          34.7615   58.7435   14.7985 N.am      2 SEC2        0.0000 
     19 N          33.9590   59.9160   14.6270 N.am      8 SEL2        0.0000 
     20 N          35.5640   57.5710   14.9700 N.am      5 SEP2        0.0000 
     21 O          33.9995   60.8440   15.5295 O.2       1 ALC1        0.0000 
     22 O          33.9590   59.9160   14.6270 O.2       7 ALL1        0.0000 
     23 O          34.0400   61.7720   16.4320 O.2       4 ALP1        0.0000 
     24 CA         35.4855   61.1465   12.5330 C.3       3 GLC5        0.0000 
     25 CA         34.2890   59.7510   12.2450 C.3       9 GLL5        0.0000 
     26 CA         36.6820   62.5420   12.8210 C.3       6 GLP5        0.0000 
     27 O          35.6570   58.1090   12.3900 O.2       1 ALC1        0.0000 
     28 O          34.2830   58.3390   12.4800 O.2       7 ALL1        0.0000 
     29 O          37.0310   57.8790   12.3000 O.2       4 ALP1        0.0000 
     30 CA         32.0100   60.3975    9.9560 C.3       3 GLC5        0.0000 
     31 CA         33.3580   60.0540   11.0680 C.3       9 GLL5        0.0000 
     32 CA         32.9750   63.3130    7.9090 C.3       3 GLC5        0.0000 
     33 CA         34.5170   62.6940    8.8710 C.3       9 GLL5        0.0000 
     34 CA         31.4330   63.9320    6.9470 C.3       6 GLP5        0.0000 
     35 N          36.0210   65.1345    8.2485 N.am      2 SEC2        0.0000 
     36 N          35.3470   64.1750    7.3280 N.am      8 SEL2        0.0000 
     37 N          36.6950   66.0940    9.1690 N.am      5 SEP2        0.0000 
     38 O          36.5760   62.4235    5.9135 O.2       1 ALC1        0.0000 
     39 O          35.7360   61.9720    6.9340 O.2       7 ALL1        0.0000 
     40 O          37.4160   62.8750    4.8930 O.2       4 ALP1        0.0000 
     41 O          36.7020   61.3710    5.6250 O.2       1 ALC1        0.0000 
     42 O          37.6680   60.7700    4.3160 O.2       4 ALP1        0.0000 
     43 O          36.8950   60.2135    5.4745 O.2       1 ALC1        0.0000 
     44 O          36.1220   59.6570    6.6330 O.2       7 ALL1        0.0000 
     45 CA         31.5660   58.9415   14.5642 C.3       3 GLC5        0.0000 
     46 CA         31.5080   57.2770   15.7550 C.3       6 GLP5        0.0000 
     47 CA         30.1010   59.6705   13.7583 C.3       3 GLC5        0.0000 
     48 CA         28.5780   58.7350   14.1430 C.3       6 GLP5        0.0000 
     49 CA         32.7802   58.3293   11.1218 C.3       3 GLC5        0.0000 
     50 CA         31.7370   56.7560   10.5870 C.3       6 GLP5        0.0000 
@<TRIPOS>BOND
@<TRIPOS>SUBSTRUCTURE
     1 ALC1        4 GROUP        1 X    ALC  0     ROOT ALC X 1
     2 SEC2        1 GROUP        1 X    SEC  0     **** SEC X 2
     3 GLC5        7 GROUP        1 X    GLC  0     **** GLC X 6
     4 ALP1        6 GROUP        1 Y    ALP  0     ROOT ALP Y 8
     5 SEP2        3 GROUP        1 Y    SEP  0     **** SEP Y 9
     6 GLP5        9 GROUP        1 Y    GLP  0     **** GLP Y 13
     7 ALL1        5 GROUP        1 Z    ALL  0     ROOT ALL Z 15
     8 SEL2        2 GROUP        1 Z    SEL  0     **** SEL Z 16
     9 GLL5        8 GROUP        1 Z    GLL  0     **** GLL Z 20
@<TRIPOS>SET

