#    Name: 2fqx_GMP_1_ligand
#    Modification time : Tue Mar 25 13:03:29 2014

@<TRIPOS>MOLECULE
2fqx_GMP_1_ligand
   33    35     1     0     0
SMALL
NO_CHARGES


@<TRIPOS>ATOM
      1 O5'        31.4040   62.4540   13.3650 O.3       1 GMP400      0.0000 
      2 C5'        31.1240   61.0890   13.6970 C.3       1 GMP400      0.0000 
      3 C4'        32.1240   60.1230   13.0500 C.3       1 GMP400      0.0000 
      4 O4'        32.0410   60.2400   11.6200 O.3       1 GMP400      0.0000 
      5 C3'        33.5730   60.4900   13.3730 C.3       1 GMP400      0.0000 
      6 O3'        33.9590   59.9160   14.6270 O.3       1 GMP400      0.0000 
      7 C2'        34.2890   59.7510   12.2450 C.3       1 GMP400      0.0000 
      8 O2'        34.2830   58.3390   12.4800 O.3       1 GMP400      0.0000 
      9 C1'        33.3580   60.0540   11.0680 C.3       1 GMP400      0.0000 
     10 N9         33.7210   61.3090   10.3680 N.pl3     1 GMP400      0.0000 
     11 C8         33.3780   62.5540   10.6980 C.2       1 GMP400      0.0000 
     12 N7         33.8610   63.3990    9.7900 N.2       1 GMP400      0.0000 
     13 C5         34.5170   62.6940    8.8710 C.2       1 GMP400      0.0000 
     14 C6         35.1930   63.0090    7.6970 C.2       1 GMP400      0.0000 
     15 O6         35.3470   64.1750    7.3280 O.2       1 GMP400      0.0000 
     16 N1         35.7360   61.9720    6.9340 N.am      1 GMP400      0.0000 
     17 C2         35.6030   60.6420    7.3580 C.2       1 GMP400      0.0000 
     18 N2         36.1220   59.6570    6.6330 N.pl3     1 GMP400      0.0000 
     19 N3         34.9520   60.3760    8.4970 N.2       1 GMP400      0.0000 
     20 C4         34.4200   61.3580    9.2410 C.2       1 GMP400      0.0000 
     21 H          30.1135   60.7910   13.3651 H         1 GMP400      0.0000 
     22 H          31.1610   60.9223   14.7883 H         1 GMP400      0.0000 
     23 H          31.9383   59.1332   13.3667 H         1 GMP400      0.0000 
     24 H          33.7105   61.4979   13.2694 H         1 GMP400      0.0000 
     25 H          35.2080   60.1769   12.0713 H         1 GMP400      0.0000 
     26 H          33.3687   59.2300   10.3963 H         1 GMP400      0.0000 
     27 H          32.8536   62.8061   11.4842 H         1 GMP400      0.0000 
     28 H          36.2335   62.1818    6.0614 H         1 GMP400      0.0000 
     29 H          36.0039   58.7332    6.9972 H         1 GMP400      0.0000 
     30 H          36.5839   59.9284    5.7886 H         1 GMP400      0.0000 
     31 H          31.9895   62.7853   14.1049 H         1 GMP400      0.0000 
     32 H          34.4460   60.6459   15.1067 H         1 GMP400      0.0000 
     33 H          35.2454   58.0686   12.4557 H         1 GMP400      0.0000 
@<TRIPOS>BOND
     1    2    1 1    
     2   31    1 1    
     3    3    2 1    
     4   21    2 1    
     5   22    2 1    
     6    4    3 1    
     7    5    3 1    
     8   23    3 1    
     9    9    4 1    
    10    6    5 1    
    11    7    5 1    
    12   24    5 1    
    13   32    6 1    
    14    8    7 1    
    15    9    7 1    
    16   25    7 1    
    17   33    8 1    
    18   10    9 1    
    19   26    9 1    
    20   11   10 1    
    21   20   10 1    
    22   12   11 2    
    23   27   11 1    
    24   13   12 1    
    25   14   13 1    
    26   20   13 2    
    27   15   14 2    
    28   16   14 am   
    29   17   16 1    
    30   28   16 1    
    31   18   17 1    
    32   19   17 2    
    33   29   18 1    
    34   30   18 1    
    35   20   19 1    
@<TRIPOS>SUBSTRUCTURE
     1 GMP400      1 GROUP   
@<TRIPOS>SET

