#    Name: 3G35_1_CAVITY_N1_ALL.mol2
#    Modification time : Mon Mar 10 18:12:57 2014

@<TRIPOS>MOLECULE
3G35_1_CAVITY_N1_ALL.mol2
   61     0     5     0     0
SMALL
NO_CHARGES


@<TRIPOS>ATOM
      1 O          -9.0345   57.0898    8.6682 O.2       2 ALA2        0.0000 
      2 DU         -9.7401   57.4260    9.9485 H         5 CUB7        0.0000 
      3 DU        -10.4457   57.7622   11.2288 H         5 CUB7        0.0000 
      4 O         -10.2262   56.3612   11.7177 O.2       2 ALA2        0.0000 
      5 CA         -7.5096   56.1062    9.7669 C.3       4 GLY6        0.0000 
      6 N          -8.2152   56.4424   11.0472 N.2       2 ALA2        0.0000 
      7 O          -8.9208   56.7786   12.3275 O.2       2 ALA2        0.0000 
      8 DU         -7.9957   55.0414   11.5361 H         5 CUB7        0.0000 
      9 O          -8.7013   55.3776   12.8164 O.2       2 ALA2        0.0000 
     10 DU         -7.7762   53.6404   12.0250 H         5 CUB7        0.0000 
     11 O          -8.4817   53.9766   13.3053 O.2       2 ALA2        0.0000 
     12 CA         -7.5566   52.2394   12.5138 C.3       4 GLY6        0.0000 
     13 CA         -8.2622   52.5756   13.7941 C.3       4 GLY6        0.0000 
     14 OG         -0.2184   52.9002   11.1123 O.2       1 SER1        0.0000 
     15 OG         -0.9240   53.2364   12.3925 O.2       1 SER1        0.0000 
     16 OG         -1.6296   53.5726   13.6728 O.2       1 SER1        0.0000 
     17 OG          0.0011   51.4992   11.6011 O.2       1 SER1        0.0000 
     18 OG         -0.7045   51.8354   12.8814 O.2       1 SER1        0.0000 
     19 N          -6.9099   56.8597   11.6570 N.2       2 ALA2        0.0000 
     20 OG         -5.9847   55.1225   10.8656 O.2       1 SER1        0.0000 
     21 N          -6.6903   55.4587   12.1459 N.2       2 ALA2        0.0000 
     22 O          -7.3959   55.7949   13.4262 O.2       2 ALA2        0.0000 
     23 OG         -5.7652   53.7215   11.3545 O.2       1 SER1        0.0000 
     24 DU         -6.4708   54.0577   12.6348 H         5 CUB7        0.0000 
     25 O          -7.1764   54.3939   13.9151 O.2       2 ALA2        0.0000 
     26 OG         -4.8401   51.9843   10.5631 O.2       1 SER1        0.0000 
     27 DU         -5.5457   52.3205   11.8434 H         5 CUB7        0.0000 
     28 CZ         -6.2513   52.6567   13.1237 C.ar      3 PHE5        0.0000 
     29 O          -6.9569   52.9929   14.4039 O.2       2 ALA2        0.0000 
     30 DU         -4.6206   50.5833   11.0520 H         5 CUB7        0.0000 
     31 CZ         -5.3261   50.9195   12.3323 C.ar      3 PHE5        0.0000 
     32 OG         -4.4010   49.1823   11.5409 O.2       1 SER1        0.0000 
     33 N          -5.3850   55.8761   12.7557 N.2       2 ALA2        0.0000 
     34 O          -6.0906   56.2122   14.0360 O.2       2 ALA2        0.0000 
     35 OG         -4.4599   54.1389   11.9643 O.2       1 SER1        0.0000 
     36 OG         -5.1654   54.4751   13.2446 O.2       1 SER1        0.0000 
     37 OG         -5.8710   54.8112   14.5249 O.2       1 SER1        0.0000 
     38 OG         -2.8291   52.0655    9.8926 O.2       1 SER1        0.0000 
     39 OG         -3.5347   52.4017   11.1729 O.2       1 SER1        0.0000 
     40 DU         -4.2403   52.7379   12.4532 H         5 CUB7        0.0000 
     41 OG         -4.9459   53.0741   13.7335 O.2       1 SER1        0.0000 
     42 N          -5.6515   53.4102   15.0138 N.2       2 ALA2        0.0000 
     43 DU         -2.6096   50.6645   10.3815 H         5 CUB7        0.0000 
     44 DU         -3.3152   51.0007   11.6618 H         5 CUB7        0.0000 
     45 CZ         -4.0208   51.3369   12.9421 C.ar      3 PHE5        0.0000 
     46 CZ         -4.7264   51.6731   14.2224 C.ar      3 PHE5        0.0000 
     47 OG         -3.0957   49.5997   12.1507 O.2       1 SER1        0.0000 
     48 CZ         -3.8013   49.9359   13.4310 C.ar      3 PHE5        0.0000 
     49 OG         -2.4489   54.2200   11.2939 O.2       1 SER1        0.0000 
     50 O          -3.1545   54.5562   12.5741 O.2       2 ALA2        0.0000 
     51 OG         -1.5238   52.4828   10.5024 O.2       1 SER1        0.0000 
     52 OG         -2.2294   52.8190   11.7827 O.2       1 SER1        0.0000 
     53 OG         -2.9350   53.1552   13.0630 O.2       1 SER1        0.0000 
     54 OG         -3.6406   53.4914   14.3433 O.2       1 SER1        0.0000 
     55 DU         -1.3043   51.0818   10.9913 H         5 CUB7        0.0000 
     56 DU         -2.0098   51.4180   12.2716 H         5 CUB7        0.0000 
     57 CA         -2.7154   51.7542   13.5519 C.3       4 GLY6        0.0000 
     58 O          -0.3791   49.3446   10.1999 O.2       2 ALA2        0.0000 
     59 CA         -1.0847   49.6808   11.4802 C.3       4 GLY6        0.0000 
     60 CA         -1.7903   50.0170   12.7605 C.3       4 GLY6        0.0000 
     61 CA         -2.4959   50.3532   14.0408 C.3       4 GLY6        0.0000 
@<TRIPOS>BOND
@<TRIPOS>SUBSTRUCTURE
     1 SER1       14 GROUP   
     2 ALA2        1 GROUP   
     3 PHE5       28 GROUP   
     4 GLY6        5 GROUP   
     5 CUB7        2 GROUP   
@<TRIPOS>SET

