#    Name: 3g35_F13_1_INTS_M
#    Modification time : Tue Mar 25 07:02:01 2014

@<TRIPOS>MOLECULE
3g35_F13_1_INTS_M
   43     0     9     0     0
SMALL
NO_CHARGES


@<TRIPOS>ATOM
      1 CA        -11.7835   60.7970   13.6355 C.3       3 GLC5        0.0000 
      2 CA        -11.6260   59.7310   11.6930 C.3       9 GLL5        0.0000 
      3 CA        -11.9410   61.8630   15.5780 C.3       6 GLP5        0.0000 
      4 CA        -11.8745   61.7265   11.7100 C.3       3 GLC5        0.0000 
      5 CA        -12.1230   63.7220   11.7270 C.3       6 GLP5        0.0000 
      6 CA        -11.0985   57.6040   13.8040 C.3       3 GLC5        0.0000 
      7 CA        -10.1490   57.9090   12.0020 C.3       9 GLL5        0.0000 
      8 CA        -12.0480   57.2990   15.6060 C.3       6 GLP5        0.0000 
      9 CA        -10.1365   60.0870    8.2695 C.3       3 GLC5        0.0000 
     10 CA        -10.6740   58.6690    9.7830 C.3       9 GLL5        0.0000 
     11 CA         -9.5990   61.5050    6.7560 C.3       6 GLP5        0.0000 
     12 CA         -9.0760   59.2085    7.8600 C.3       3 GLC5        0.0000 
     13 CA         -9.8450   57.6920    9.2360 C.3       9 GLL5        0.0000 
     14 CA         -8.3070   60.7250    6.4840 C.3       6 GLP5        0.0000 
     15 N         -10.1920   55.1380   13.5840 N.am      2 SEC2        0.0000 
     16 N          -8.9420   55.9010   13.5470 N.am      8 SEL2        0.0000 
     17 N         -11.4420   54.3750   13.6210 N.am      5 SEP2        0.0000 
     18 N          -8.7960   55.3335   14.9865 N.am      2 SEC2        0.0000 
     19 N          -8.6500   54.7660   16.4260 N.am      5 SEP2        0.0000 
     20 CA         -3.3715   52.2405   15.1985 C.3       3 GLC5        0.0000 
     21 CA         -4.8450   52.9800   14.1120 C.3       9 GLL5        0.0000 
     22 CA         -1.8980   51.5010   16.2850 C.3       6 GLP5        0.0000 
     23 N          -3.1010   54.5485   10.3300 N.am      2 SEC2        0.0000 
     24 N          -2.5270   53.9570   11.3930 N.am      8 SEL2        0.0000 
     25 N          -3.6750   55.1400    9.2670 N.am      5 SEP2        0.0000 
     26 N           0.3230   53.2880   12.1935 N.am      2 SEC2        0.0000 
     27 N          -1.1490   53.7940   11.3940 N.am      8 SEL2        0.0000 
     28 N           1.7950   52.7820   12.9930 N.am      5 SEP2        0.0000 
     29 N           0.5020   53.0900   12.8375 N.am      2 SEC2        0.0000 
     30 N          -0.7910   53.3980   12.6820 N.am      8 SEL2        0.0000 
     31 O          -1.9215   53.1160   14.7700 O.2       1 ALC1        0.0000 
     32 O          -1.9640   53.3260   13.4290 O.2       7 ALL1        0.0000 
     33 O          -1.8790   52.9060   16.1110 O.2       4 ALP1        0.0000 
     34 CA         -9.3100   59.5932   12.1000 C.3       3 GLC5        0.0000 
     35 CA        -10.8240   58.7840   11.1570 C.3       9 GLL5        0.0000 
     36 CA         -7.3950   59.9290   12.7750 C.3       6 GLP5        0.0000 
     37 CA         -7.7890   58.1688    9.3552 C.3       3 GLC5        0.0000 
     38 CA         -9.1530   56.8250   10.0810 C.3       9 GLL5        0.0000 
     39 CA         -6.0790   59.0790    9.0520 C.3       6 GLP5        0.0000 
     40 CA         -8.4184   58.5258   11.8414 C.3       3 GLC5        0.0000 
     41 CA         -7.7242   51.9775   14.6415 C.3       3 GLC5        0.0000 
     42 CA         -7.0880   53.8180   13.7370 C.3       9 GLL5        0.0000 
     43 CA         -8.8100   50.5270   15.1820 C.3       6 GLP5        0.0000 
@<TRIPOS>BOND
@<TRIPOS>SUBSTRUCTURE
     1 ALC1       31 GROUP        1 X    ALC  0     ROOT ALC X 1
     2 SEC2       15 GROUP        1 X    SEC  0     **** SEC X 2
     3 GLC5        1 GROUP        1 X    GLC  0     **** GLC X 6
     4 ALP1       33 GROUP        1 Y    ALP  0     ROOT ALP Y 8
     5 SEP2       17 GROUP        1 Y    SEP  0     **** SEP Y 9
     6 GLP5        3 GROUP        1 Y    GLP  0     **** GLP Y 13
     7 ALL1       32 GROUP        1 Z    ALL  0     ROOT ALL Z 15
     8 SEL2       16 GROUP        1 Z    SEL  0     **** SEL Z 16
     9 GLL5        2 GROUP        1 Z    GLL  0     **** GLL Z 20
@<TRIPOS>SET

