#    Name: 3g35_F13_1_ligand
#    Modification time : Tue Mar 25 07:02:01 2014

@<TRIPOS>MOLECULE
3g35_F13_1_ligand
   31    33     1     0     0
SMALL
NO_CHARGES


@<TRIPOS>ATOM
      1 F21       -11.6260   59.7310   11.6930 F         1 F131        0.0000 
      2 C16       -10.8240   58.7840   11.1570 C.ar      1 F131        0.0000 
      3 C15       -10.1490   57.9090   12.0020 C.ar      1 F131        0.0000 
      4 C17       -10.6740   58.6690    9.7830 C.ar      1 F131        0.0000 
      5 C18        -9.8450   57.6920    9.2360 C.ar      1 F131        0.0000 
      6 C19        -9.1530   56.8250   10.0810 C.ar      1 F131        0.0000 
      7 C14        -9.3120   56.9310   11.4670 C.ar      1 F131        0.0000 
      8 C13        -8.5630   56.0080   12.3910 C.2       1 F131        0.0000 
      9 O20        -8.9420   55.9010   13.5470 O.2       1 F131        0.0000 
     10 N12        -7.4940   55.3630   11.9080 N.am      1 F131        0.0000 
     11 C10        -6.6540   54.5780   12.6430 C.ar      1 F131        0.0000 
     12 C9         -7.0880   53.8180   13.7370 C.ar      1 F131        0.0000 
     13 C8         -6.1890   53.0380   14.4650 C.ar      1 F131        0.0000 
     14 C7         -4.8450   52.9800   14.1120 C.ar      1 F131        0.0000 
     15 C6         -4.4150   53.7270   13.0210 C.ar      1 F131        0.0000 
     16 C11        -5.3040   54.5250   12.2970 C.ar      1 F131        0.0000 
     17 C4         -2.9890   53.6790   12.6260 C.2       1 F131        0.0000 
     18 N5         -2.5270   53.9570   11.3930 N.2       1 F131        0.0000 
     19 N1         -1.1490   53.7940   11.3940 N.2       1 F131        0.0000 
     20 N2         -0.7910   53.3980   12.6820 N.2       1 F131        0.0000 
     21 N3         -1.9640   53.3260   13.4290 N.pl3     1 F131        0.0000 
     22 H         -10.2664   57.9825   13.0200 H         1 F131        0.0000 
     23 H         -11.1820   59.3144    9.1552 H         1 F131        0.0000 
     24 H          -9.7441   57.6106    8.2201 H         1 F131        0.0000 
     25 H          -8.5296   56.1119    9.6901 H         1 F131        0.0000 
     26 H          -7.2711   55.4649   10.8601 H         1 F131        0.0000 
     27 H          -8.0833   53.8370   14.0051 H         1 F131        0.0000 
     28 H          -6.5284   52.4965   15.2776 H         1 F131        0.0000 
     29 H          -4.1925   52.4049   14.6393 H         1 F131        0.0000 
     30 H          -4.9580   55.0794   11.4998 H         1 F131        0.0000 
     31 H          -2.0083   53.0691   14.3469 H         1 F131        0.0000 
@<TRIPOS>BOND
     1    2    1 1    
     2    3    2 ar   
     3    4    2 ar   
     4    7    3 ar   
     5   22    3 1    
     6    5    4 ar   
     7   23    4 1    
     8    6    5 ar   
     9   24    5 1    
    10    7    6 ar   
    11   25    6 1    
    12    8    7 1    
    13    9    8 2    
    14   10    8 am   
    15   11   10 1    
    16   26   10 1    
    17   12   11 ar   
    18   16   11 ar   
    19   13   12 ar   
    20   27   12 1    
    21   14   13 ar   
    22   28   13 1    
    23   15   14 ar   
    24   29   14 1    
    25   16   15 ar   
    26   17   15 1    
    27   30   16 1    
    28   18   17 2    
    29   21   17 1    
    30   19   18 1    
    31   20   19 2    
    32   21   20 1    
    33   31   21 1    
@<TRIPOS>SUBSTRUCTURE
     1 F131        1 GROUP   
@<TRIPOS>SET

