#    Name: 4fps_0UX_1_INTS_M
#    Modification time : Mon Mar 24 20:32:19 2014

@<TRIPOS>MOLECULE
4fps_0UX_1_INTS_M
   76     0    12     0     0
SMALL
NO_CHARGES


@<TRIPOS>ATOM
      1 O          16.8905   17.1275   25.0230 O.2       1 ALC1        0.0000 
      2 O          16.7700   16.9940   23.6870 O.2       9 ALL1        0.0000 
      3 O          17.0110   17.2610   26.3590 O.2       5 ALP1        0.0000 
      4 N          19.3220   17.8580   24.8085 N.am      2 SEC2        0.0000 
      5 N          18.8640   17.7370   23.3900 N.am     10 SEL2        0.0000 
      6 N          19.7800   17.9790   26.2270 N.am      6 SEP2        0.0000 
      7 N          20.2245   17.7730   23.1415 N.am      2 SEC2        0.0000 
      8 N          21.5850   17.8090   22.8930 N.am      6 SEP2        0.0000 
      9 O          13.6360   15.3110   23.6180 O.2       1 ALC1        0.0000 
     10 O          14.6080   16.1730   24.0560 O.2       9 ALL1        0.0000 
     11 O          12.6640   14.4490   23.1800 O.2       5 ALP1        0.0000 
     12 O          13.6975   15.7905   22.6345 O.2       1 ALC1        0.0000 
     13 O          12.7870   15.4080   21.2130 O.2       5 ALP1        0.0000 
     14 O          14.7170   16.7025   25.3815 O.2       1 ALC1        0.0000 
     15 O          14.8260   17.2320   26.7070 O.2       5 ALP1        0.0000 
     16 CA         20.5240   18.3545   21.6520 C.3       4 GLC5        0.0000 
     17 CA         18.6550   17.7010   20.6170 C.3      12 GLL5        0.0000 
     18 CA         22.3930   19.0080   22.6870 C.3       8 GLP5        0.0000 
     19 CA         17.6345   15.7805   17.2325 C.3       4 GLC5        0.0000 
     20 CA         17.1870   17.1880   18.7100 C.3      12 GLL5        0.0000 
     21 CA         18.0820   14.3730   15.7550 C.3       8 GLP5        0.0000 
     22 CA         16.6165   14.2220   19.3020 C.3       4 GLC5        0.0000 
     23 CA         14.9190   14.9230   18.3460 C.3      12 GLL5        0.0000 
     24 CA         18.3140   13.5210   20.2580 C.3       8 GLP5        0.0000 
     25 CA         16.5005   14.6480   17.0505 C.3       4 GLC5        0.0000 
     26 OD1        14.9135   13.1900   17.2800 O.co2     3 ASC3        0.0000 
     27 OD1        13.9750   14.7430   17.2350 O.co2    11 ASL3        0.0000 
     28 OD1        15.8520   11.6370   17.3250 O.co2     7 ASP3        0.0000 
     29 OD1        14.1810   13.6075   16.5615 O.co2     3 ASC3        0.0000 
     30 OD1        14.3870   12.4720   15.8880 O.co2     7 ASP3        0.0000 
     31 CA         11.7940   14.2650   19.6090 C.3       4 GLC5        0.0000 
     32 CA         12.5660   14.6910   17.6280 C.3      12 GLL5        0.0000 
     33 CA         11.0220   13.8390   21.5900 C.3       8 GLP5        0.0000 
     34 O          20.5205   18.1380   18.2060 O.2       1 ALC1        0.0000 
     35 O          19.1470   17.9690   18.1760 O.2       9 ALL1        0.0000 
     36 O          21.8940   18.3070   18.2360 O.2       5 ALP1        0.0000 
     37 O          19.9510   18.9805   15.7170 O.2       1 ALC1        0.0000 
     38 O          18.9270   18.0030   15.8400 O.2       9 ALL1        0.0000 
     39 O          20.9750   19.9580   15.5940 O.2       5 ALP1        0.0000 
     40 CA         16.9260   19.6065   15.9815 C.3       4 GLC5        0.0000 
     41 CA         17.9770   18.1760   14.7520 C.3      12 GLL5        0.0000 
     42 CA         15.8750   21.0370   17.2110 C.3       8 GLP5        0.0000 
     43 CA         20.0965   17.8065   15.0050 C.3       4 GLC5        0.0000 
     44 CA         22.2160   17.4370   15.2580 C.3       8 GLP5        0.0000 
     45 CA         18.0295   16.2745   15.2535 C.3       4 GLC5        0.0000 
     46 CA         12.8720   18.6855   17.6165 C.3       4 GLC5        0.0000 
     47 CA         11.8150   16.9930   16.8420 C.3      12 GLL5        0.0000 
     48 CA         13.9290   20.3780   18.3910 C.3       8 GLP5        0.0000 
     49 CA         10.2000   13.3690   17.2735 C.3       4 GLC5        0.0000 
     50 CA         10.1350   15.2000   17.2210 C.3      12 GLL5        0.0000 
     51 CA         10.2650   11.5380   17.3260 C.3       8 GLP5        0.0000 
     52 CA         15.5162   18.2658   20.9652 C.3       4 GLC5        0.0000 
     53 CA         16.3620   16.8630   20.9350 C.3      12 GLL5        0.0000 
     54 CA         14.0600   19.4460   20.7400 C.3       8 GLP5        0.0000 
     55 CA         17.6433   15.3033   20.7242 C.3       4 GLC5        0.0000 
     56 CA         17.5830   17.3080   21.4460 C.3      12 GLL5        0.0000 
     57 CA         18.4175   15.5935   20.0965 C.3       4 GLC5        0.0000 
     58 CA         18.6745   19.2039   21.0161 C.3       4 GLC5        0.0000 
     59 CA         18.3870   17.6310   19.2530 C.3      12 GLL5        0.0000 
     60 CA         19.0960   20.8400   21.8900 C.3       8 GLP5        0.0000 
     61 CA         17.4835   15.2515   19.6945 C.3       4 GLC5        0.0000 
     62 CA         16.1190   16.7760   19.5520 C.3      12 GLL5        0.0000 
     63 CA         14.9025   18.0493   19.8858 C.3       4 GLC5        0.0000 
     64 CA         11.0756   13.2930   16.7871 C.3       4 GLC5        0.0000 
     65 CA         11.7040   15.0100   15.3030 C.3      12 GLL5        0.0000 
     66 CA         11.6356   16.1698   13.0633 C.3       4 GLC5        0.0000 
     67 CA         11.0170   17.2090   14.4800 C.3      12 GLL5        0.0000 
     68 CA         12.1610   16.0520   11.4620 C.3       8 GLP5        0.0000 
     69 CA          8.4283   15.3347   18.1197 C.3       4 GLC5        0.0000 
     70 CA          9.1420   15.9550   16.3180 C.3      12 GLL5        0.0000 
     71 CA          7.2180   15.0920   19.4700 C.3       8 GLP5        0.0000 
     72 CA         10.4136   14.0227   13.5335 C.3       4 GLC5        0.0000 
     73 CA          9.3070   15.4370   14.9030 C.3      12 GLL5        0.0000 
     74 CA         10.5720   12.6440   12.1910 C.3       8 GLP5        0.0000 
     75 CA          7.7610   16.7461   14.8801 C.3       4 GLC5        0.0000 
     76 CA          6.2170   17.4240   14.1460 C.3       8 GLP5        0.0000 
@<TRIPOS>BOND
@<TRIPOS>SUBSTRUCTURE
     1 ALC1        1 GROUP        1 X    ALC  0     ROOT ALC X 1
     2 SEC2        4 GROUP        1 X    SEC  0     **** SEC X 2
     3 ASC3       26 GROUP        1 X    ASC  0     **** ASC X 3
     4 GLC5       16 GROUP        1 X    GLC  0     **** GLC X 6
     5 ALP1        3 GROUP        1 Y    ALP  0     ROOT ALP Y 8
     6 SEP2        6 GROUP        1 Y    SEP  0     **** SEP Y 9
     7 ASP3       28 GROUP        1 Y    ASP  0     **** ASP Y 10
     8 GLP5       18 GROUP        1 Y    GLP  0     **** GLP Y 13
     9 ALL1        2 GROUP        1 Z    ALL  0     ROOT ALL Z 15
    10 SEL2        5 GROUP        1 Z    SEL  0     **** SEL Z 16
    11 ASL3       27 GROUP        1 Z    ASL  0     **** ASL Z 17
    12 GLL5       17 GROUP        1 Z    GLL  0     **** GLL Z 20
@<TRIPOS>SET

