#    Name: 4fps_0UX_1_ligand
#    Modification time : Mon Mar 24 20:32:19 2014

@<TRIPOS>MOLECULE
4fps_0UX_1_ligand
   61    66     1     0     0
SMALL
NO_CHARGES


@<TRIPOS>ATOM
      1 N1         16.7700   16.9940   23.6870 N.am      1 0UX402      0.0000 
      2 C1         17.8380   17.3660   22.8790 C.2       1 0UX402      0.0000 
      3 O1         18.8640   17.7370   23.3900 O.2       1 0UX402      0.0000 
      4 C2         17.5830   17.3080   21.4460 C.ar      1 0UX402      0.0000 
      5 C3         16.3620   16.8630   20.9350 C.ar      1 0UX402      0.0000 
      6 N2         15.3690   16.4250   21.8640 N.2       1 0UX402      0.0000 
      7 C4         15.5740   16.5280   23.1470 C.2       1 0UX402      0.0000 
      8 N3         14.6080   16.1730   24.0560 N.pl3     1 0UX402      0.0000 
      9 C5         18.6550   17.7010   20.6170 C.ar      1 0UX402      0.0000 
     10 C6         18.3870   17.6310   19.2530 C.ar      1 0UX402      0.0000 
     11 C7         17.1870   17.1880   18.7100 C.ar      1 0UX402      0.0000 
     12 C8         16.1190   16.7760   19.5520 C.ar      1 0UX402      0.0000 
     13 C9         14.8370   16.3230   18.9320 C.3       1 0UX402      0.0000 
     14 C10        14.9190   14.9230   18.3460 C.3       1 0UX402      0.0000 
     15 N4         13.9750   14.7430   17.2350 N.4       1 0UX402      0.0000 
     16 C11        12.5660   14.6910   17.6280 C.3       1 0UX402      0.0000 
     17 N5         19.1470   17.9690   18.1760 N.pl3     1 0UX402      0.0000 
     18 C12        18.3980   17.7600   17.0570 C.2       1 0UX402      0.0000 
     19 N6         18.9270   18.0030   15.8400 N.pl3     1 0UX402      0.0000 
     20 C13        17.9770   18.1760   14.7520 C.3       1 0UX402      0.0000 
     21 N7         17.2030   17.2980   17.3390 N.2       1 0UX402      0.0000 
     22 C14        11.5710   15.4810   16.7590 C.3       1 0UX402      0.0000 
     23 C15        11.7040   15.0100   15.3030 C.3       1 0UX402      0.0000 
     24 C16        10.7030   15.7220   14.3950 C.3       1 0UX402      0.0000 
     25 C17        11.0170   17.2090   14.4800 C.3       1 0UX402      0.0000 
     26 C18        10.8700   17.7520   15.8880 C.3       1 0UX402      0.0000 
     27 C19        11.8150   16.9930   16.8420 C.3       1 0UX402      0.0000 
     28 C20         9.4640   17.4440   16.3330 C.3       1 0UX402      0.0000 
     29 C21        10.1350   15.2000   17.2210 C.3       1 0UX402      0.0000 
     30 C22         9.3070   15.4370   14.9030 C.3       1 0UX402      0.0000 
     31 C23         9.1420   15.9550   16.3180 C.3       1 0UX402      0.0000 
     32 H          16.8652   17.0649   24.7196 H         1 0UX402      0.0000 
     33 H          13.7503   15.8283   23.6746 H         1 0UX402      0.0000 
     34 H          14.8466   16.2902   25.0200 H         1 0UX402      0.0000 
     35 H          19.5209   17.9998   20.9839 H         1 0UX402      0.0000 
     36 H          14.5433   17.0238   18.1321 H         1 0UX402      0.0000 
     37 H          14.0321   16.3433   19.6863 H         1 0UX402      0.0000 
     38 H          14.7120   14.1983   19.1473 H         1 0UX402      0.0000 
     39 H          15.9505   14.7487   18.0058 H         1 0UX402      0.0000 
     40 H          12.4451   15.0520   18.6831 H         1 0UX402      0.0000 
     41 H          12.2112   13.6273   17.6558 H         1 0UX402      0.0000 
     42 H          20.0460   18.2950   18.1991 H         1 0UX402      0.0000 
     43 H          19.9039   18.0698   15.6446 H         1 0UX402      0.0000 
     44 H          11.5292   13.9349   15.2602 H         1 0UX402      0.0000 
     45 H          12.7165   15.2145   14.9547 H         1 0UX402      0.0000 
     46 H          10.8234   15.3808   13.4074 H         1 0UX402      0.0000 
     47 H          10.3431   17.7562   13.8085 H         1 0UX402      0.0000 
     48 H          12.0439   17.3786   14.1317 H         1 0UX402      0.0000 
     49 H          11.0561   18.7709   15.9247 H         1 0UX402      0.0000 
     50 H          12.8434   17.2075   16.5661 H         1 0UX402      0.0000 
     51 H          11.6377   17.3311   17.8588 H         1 0UX402      0.0000 
     52 H           8.7492   17.9678   15.6782 H         1 0UX402      0.0000 
     53 H           9.3097   17.8297   17.3535 H         1 0UX402      0.0000 
     54 H          10.0136   15.5365   18.2421 H         1 0UX402      0.0000 
     55 H           9.9378   14.1382   17.1562 H         1 0UX402      0.0000 
     56 H           9.1276   14.3618   14.8889 H         1 0UX402      0.0000 
     57 H           8.5779   15.9220   14.2536 H         1 0UX402      0.0000 
     58 H           8.1587   15.7880   16.6541 H         1 0UX402      0.0000 
     59 H          18.4370   18.3527   13.8819 H         1 0UX402      0.0000 
     60 H          17.4080   17.3638   14.6231 H         1 0UX402      0.0000 
     61 H          17.3583   18.9440   14.9177 H         1 0UX402      0.0000 
@<TRIPOS>BOND
     1    2    1 am   
     2    7    1 1    
     3   32    1 1    
     4    3    2 2    
     5    4    2 1    
     6    5    4 ar   
     7    9    4 ar   
     8    6    5 1    
     9   12    5 ar   
    10    7    6 2    
    11    8    7 1    
    12   33    8 1    
    13   34    8 1    
    14   10    9 ar   
    15   35    9 1    
    16   11   10 ar   
    17   17   10 1    
    18   12   11 ar   
    19   21   11 1    
    20   13   12 1    
    21   14   13 1    
    22   36   13 1    
    23   37   13 1    
    24   15   14 1    
    25   38   14 1    
    26   39   14 1    
    27   16   15 1    
    28   22   16 1    
    29   40   16 1    
    30   41   16 1    
    31   18   17 1    
    32   42   17 1    
    33   19   18 1    
    34   21   18 2    
    35   20   19 1    
    36   43   19 1    
    37   59   20 1    
    38   60   20 1    
    39   61   20 1    
    40   23   22 1    
    41   27   22 1    
    42   29   22 1    
    43   24   23 1    
    44   44   23 1    
    45   45   23 1    
    46   25   24 1    
    47   30   24 1    
    48   46   24 1    
    49   26   25 1    
    50   47   25 1    
    51   48   25 1    
    52   27   26 1    
    53   28   26 1    
    54   49   26 1    
    55   50   27 1    
    56   51   27 1    
    57   31   28 1    
    58   52   28 1    
    59   53   28 1    
    60   31   29 1    
    61   54   29 1    
    62   55   29 1    
    63   31   30 1    
    64   56   30 1    
    65   57   30 1    
    66   58   31 1    
@<TRIPOS>SUBSTRUCTURE
     1 0UX402      1 GROUP   
@<TRIPOS>SET

