#    Name: 4awq_592_1_INTS_M
#    Modification time : Tue Mar 25 06:19:58 2014

@<TRIPOS>MOLECULE
4awq_592_1_INTS_M
  100     0     9     0     0
SMALL
NO_CHARGES


@<TRIPOS>ATOM
      1 CA         -4.6780    6.7230    0.3300 C.3       3 GLC5        0.0000 
      2 CA         -3.9120    5.4300    1.3370 C.3       9 GLL5        0.0000 
      3 CA         -5.4440    8.0160   -0.6770 C.3       6 GLP5        0.0000 
      4 CA         -2.8860    3.2075    3.8815 C.3       3 GLC5        0.0000 
      5 CA         -4.6800    2.1600    3.7490 C.3       9 GLL5        0.0000 
      6 CA         -1.0920    4.2550    4.0140 C.3       6 GLP5        0.0000 
      7 CA         -3.9305    1.9960    5.4945 C.3       3 GLC5        0.0000 
      8 CA         -3.1810    1.8320    7.2400 C.3       6 GLP5        0.0000 
      9 CA         -5.8135    2.9410    5.0820 C.3       3 GLC5        0.0000 
     10 CA         -6.9470    3.7220    6.4150 C.3       6 GLP5        0.0000 
     11 CA         -5.9270    0.6110    2.8695 C.3       3 GLC5        0.0000 
     12 CA         -7.1740   -0.9380    1.9900 C.3       6 GLP5        0.0000 
     13 CA         -4.7070    6.9070   -2.2160 C.3       3 GLC5        0.0000 
     14 CA         -3.9700    5.7980   -3.7550 C.3       9 GLL5        0.0000 
     15 CA         -1.0565    4.6540   -4.3235 C.3       3 GLC5        0.0000 
     16 CA         -2.6360    5.7390   -4.5990 C.3       9 GLL5        0.0000 
     17 CA          0.5230    3.5690   -4.0480 C.3       6 GLP5        0.0000 
     18 CA         -6.2685    4.7740   -2.9990 C.3       3 GLC5        0.0000 
     19 CA         -5.2270    5.5630   -4.6840 C.3       9 GLL5        0.0000 
     20 CA         -7.3100    3.9850   -1.3140 C.3       6 GLP5        0.0000 
     21 CA         -5.8305    7.4685   -5.6640 C.3       3 GLC5        0.0000 
     22 CA         -6.4340    9.3740   -6.6440 C.3       6 GLP5        0.0000 
     23 CA         -5.7865    7.0875   -3.2205 C.3       3 GLC5        0.0000 
     24 CA         -6.3460    8.6120   -1.7570 C.3       6 GLP5        0.0000 
     25 CA         -5.5175    3.2245   -7.2155 C.3       3 GLC5        0.0000 
     26 CA         -5.0020    4.4430   -5.7550 C.3       9 GLL5        0.0000 
     27 CA         -6.0330    2.0060   -8.6760 C.3       6 GLP5        0.0000 
     28 CA         -4.4185    1.9590   -6.5840 C.3       3 GLC5        0.0000 
     29 CA         -4.5990    3.1240   -5.1460 C.3       9 GLL5        0.0000 
     30 CA         -4.2380    0.7940   -8.0220 C.3       6 GLP5        0.0000 
     31 CA         -3.4145    2.6175   -6.8590 C.3       3 GLC5        0.0000 
     32 CA         -3.0430    3.2230   -5.1030 C.3       9 GLL5        0.0000 
     33 CA         -3.7860    2.0120   -8.6150 C.3       6 GLP5        0.0000 
     34 CA         -2.5250    3.4740   -7.1970 C.3       3 GLC5        0.0000 
     35 CA         -2.6520    4.6090   -5.6440 C.3       9 GLL5        0.0000 
     36 CA         -2.3980    2.3390   -8.7500 C.3       6 GLP5        0.0000 
     37 CA         -4.4900    7.8610   -7.3270 C.3       3 GLC5        0.0000 
     38 CA         -3.8800    5.7400   -7.6010 C.3       9 GLL5        0.0000 
     39 CA         -5.1000    9.9820   -7.0530 C.3       6 GLP5        0.0000 
     40 CA         -7.0920    5.3010   -7.6890 C.3       3 GLC5        0.0000 
     41 CA         -5.1130    6.0120   -8.2490 C.3       9 GLL5        0.0000 
     42 CA         -9.0710    4.5900   -7.1290 C.3       6 GLP5        0.0000 
     43 CA         -5.7735    7.6930   -7.4465 C.3       3 GLC5        0.0000 
     44 N          -1.6795    6.8350   -7.3755 N.am      2 SEC2        0.0000 
     45 N          -2.7370    6.3510   -8.0200 N.am      8 SEL2        0.0000 
     46 N          -0.6220    7.3190   -6.7310 N.am      5 SEP2        0.0000 
     47 CA         -0.5780    7.5415   -9.4430 C.3       3 GLC5        0.0000 
     48 CA         -2.6980    7.1440   -9.0980 C.3       9 GLL5        0.0000 
     49 CA          1.5420    7.9390   -9.7880 C.3       6 GLP5        0.0000 
     50 N          -2.1530    9.3675  -12.5350 N.am      2 SEC2        0.0000 
     51 N          -2.7770    8.7960  -11.3660 N.am      8 SEL2        0.0000 
     52 N          -1.5290    9.9390  -13.7040 N.am      5 SEP2        0.0000 
     53 O          -6.4480    8.2895  -11.3240 O.2       1 ALC1        0.0000 
     54 O          -5.0430    8.5070  -11.5980 O.2       7 ALL1        0.0000 
     55 O          -7.8530    8.0720  -11.0500 O.2       4 ALP1        0.0000 
     56 CA         -3.1875    8.4435  -13.6455 C.3       3 GLC5        0.0000 
     57 CA         -5.1160    9.2520  -12.8890 C.3       9 GLL5        0.0000 
     58 CA         -1.2590    7.6350  -14.4020 C.3       6 GLP5        0.0000 
     59 CA         -4.8020    7.2790  -12.8120 C.3       3 GLC5        0.0000 
     60 CA         -4.4880    5.3060  -12.7350 C.3       6 GLP5        0.0000 
     61 CA         -2.9755   11.4410  -13.8110 C.3       3 GLC5        0.0000 
     62 CA         -4.7600   11.5310  -13.9090 C.3       9 GLL5        0.0000 
     63 CA         -1.1910   11.3510  -13.7130 C.3       6 GLP5        0.0000 
     64 CA         -3.0700   12.4425  -13.0755 C.3       3 GLC5        0.0000 
     65 CA         -4.6820   12.9200  -13.8150 C.3       9 GLL5        0.0000 
     66 CA         -1.4580   11.9650  -12.3360 C.3       6 GLP5        0.0000 
     67 CA         -3.0160   13.5005  -12.4260 C.3       3 GLC5        0.0000 
     68 CA         -4.8850   13.5300  -12.5690 C.3       9 GLL5        0.0000 
     69 CA         -1.1470   13.4710  -12.2830 C.3       6 GLP5        0.0000 
     70 CA         -7.0620   10.7485  -10.4725 C.3       3 GLC5        0.0000 
     71 CA         -5.2050   11.3760  -11.5160 C.3       9 GLL5        0.0000 
     72 CA         -8.9190   10.1210   -9.4290 C.3       6 GLP5        0.0000 
     73 CA         -5.4580    3.9332   -0.6115 C.3       3 GLC5        0.0000 
     74 CA         -3.7550    4.0100    0.7610 C.3       9 GLL5        0.0000 
     75 CA         -2.5014    4.0328    2.6678 C.3       3 GLC5        0.0000 
     76 CA         -3.9880    2.9010    1.5940 C.3       9 GLL5        0.0000 
     77 CA         -5.5445    2.2605    0.2848 C.3       3 GLC5        0.0000 
     78 CA         -7.1660    2.2810   -0.7940 C.3       6 GLP5        0.0000 
     79 CA         -4.9778    0.2500    0.6013 C.3       3 GLC5        0.0000 
     80 CA         -3.8580    1.5790    1.1330 C.3       9 GLL5        0.0000 
     81 CA         -6.2470   -0.9640    0.7410 C.3       6 GLP5        0.0000 
     82 CA         -2.9028   -0.1350    0.3073 C.3       3 GLC5        0.0000 
     83 CA         -2.0970   -1.7340    0.1530 C.3       6 GLP5        0.0000 
     84 CA         -5.3040    2.0870   -0.7112 C.3       3 GLC5        0.0000 
     85 CA         -3.5590    1.3490   -0.2100 C.3       9 GLL5        0.0000 
     86 CA         -4.5825    0.5790   -1.6728 C.3       3 GLC5        0.0000 
     87 CA         -5.7230   -0.7350   -2.7170 C.3       6 GLP5        0.0000 
     88 CA         -2.6775    7.3502   -3.5290 C.3       3 GLC5        0.0000 
     89 CA         -2.0520    8.9320   -2.8810 C.3       6 GLP5        0.0000 
     90 CA         -0.9980    6.0205   -5.7622 C.3       3 GLC5        0.0000 
     91 CA          0.6480    6.8670   -6.4030 C.3       6 GLP5        0.0000 
     92 CA         -6.5663    3.0032   -5.3117 C.3       3 GLC5        0.0000 
     93 CA         -8.3320    2.2230   -5.1730 C.3       6 GLP5        0.0000 
     94 CA         -3.6345    1.0848   -4.4947 C.3       3 GLC5        0.0000 
     95 CA         -3.4480   -1.0040   -3.8650 C.3       6 GLP5        0.0000 
     96 CA         -1.3058    3.2025   -5.1578 C.3       3 GLC5        0.0000 
     97 CA          0.2360    2.4890   -4.9420 C.3       6 GLP5        0.0000 
     98 CA         -4.3506    8.5642   -8.1905 C.3       3 GLC5        0.0000 
     99 CA         -5.1160    6.8580   -9.3490 C.3       9 GLL5        0.0000 
    100 CA         -3.2865   11.9458  -12.0585 C.3       3 GLC5        0.0000 
@<TRIPOS>BOND
@<TRIPOS>SUBSTRUCTURE
     1 ALC1       53 GROUP        1 X    ALC  0     ROOT ALC X 1
     2 SEC2       44 GROUP        1 X    SEC  0     **** SEC X 2
     3 GLC5        1 GROUP        1 X    GLC  0     **** GLC X 6
     4 ALP1       55 GROUP        1 Y    ALP  0     ROOT ALP Y 8
     5 SEP2       46 GROUP        1 Y    SEP  0     **** SEP Y 9
     6 GLP5        3 GROUP        1 Y    GLP  0     **** GLP Y 13
     7 ALL1       54 GROUP        1 Z    ALL  0     ROOT ALL Z 15
     8 SEL2       45 GROUP        1 Z    SEL  0     **** SEL Z 16
     9 GLL5        2 GROUP        1 Z    GLL  0     **** GLL Z 20
@<TRIPOS>SET

