#    Name: 4awq_592_1_ligand
#    Modification time : Tue Mar 25 06:19:58 2014

@<TRIPOS>MOLECULE
4awq_592_1_ligand
   68    72     1     0     0
SMALL
NO_CHARGES


@<TRIPOS>ATOM
      1 C20        -3.9120    5.4300    1.3370 C.3       1 5921224     0.0000 
      2 C13        -3.7550    4.0100    0.7610 C.ar      1 5921224     0.0000 
      3 C14        -3.9880    2.9010    1.5940 C.ar      1 5921224     0.0000 
      4 O2         -4.3300    3.2070    2.8830 O.3       1 5921224     0.0000 
      5 C19        -4.6800    2.1600    3.7490 C.3       1 5921224     0.0000 
      6 C15        -3.8580    1.5790    1.1330 C.ar      1 5921224     0.0000 
      7 C16        -3.5590    1.3490   -0.2100 C.ar      1 5921224     0.0000 
      8 C1         -3.3250    2.4370   -1.0470 C.ar      1 5921224     0.0000 
      9 C12        -3.4570    3.7530   -0.5790 C.ar      1 5921224     0.0000 
     10 C10        -3.2170    4.8950   -1.5650 C.2       1 5921224     0.0000 
     11 O1         -2.3640    5.7480   -1.3680 O.2       1 5921224     0.0000 
     12 N1         -4.0030    4.8290   -2.6540 N.am      1 5921224     0.0000 
     13 C4         -3.9700    5.7980   -3.7550 C.3       1 5921224     0.0000 
     14 C5         -2.6360    5.7390   -4.5990 C.3       1 5921224     0.0000 
     15 C3         -5.2270    5.5630   -4.6840 C.3       1 5921224     0.0000 
     16 C2         -5.0020    4.4430   -5.7550 C.3       1 5921224     0.0000 
     17 C8         -4.5990    3.1240   -5.1460 C.3       1 5921224     0.0000 
     18 C7         -3.0430    3.2230   -5.1030 C.3       1 5921224     0.0000 
     19 C6         -2.6520    4.6090   -5.6440 C.3       1 5921224     0.0000 
     20 N4         -3.8360    4.9150   -6.4890 N.3       1 5921224     0.0000 
     21 C21        -3.8800    5.7400   -7.6010 C.ar      1 5921224     0.0000 
     22 C26        -5.1130    6.0120   -8.2490 C.ar      1 5921224     0.0000 
     23 C25        -5.1160    6.8580   -9.3490 C.ar      1 5921224     0.0000 
     24 N2         -2.7370    6.3510   -8.0200 N.ar      1 5921224     0.0000 
     25 C23        -2.6980    7.1440   -9.0980 C.ar      1 5921224     0.0000 
     26 C24        -3.8930    7.4400   -9.7670 C.ar      1 5921224     0.0000 
     27 C27        -3.8420    8.3160  -10.9840 C.2       1 5921224     0.0000 
     28 O3         -2.7770    8.7960  -11.3660 O.2       1 5921224     0.0000 
     29 N3         -5.0430    8.5070  -11.5980 N.am      1 5921224     0.0000 
     30 C11        -5.1160    9.2520  -12.8890 C.3       1 5921224     0.0000 
     31 C17        -5.0190   10.7640  -12.7700 C.ar      1 5921224     0.0000 
     32 C18        -4.7600   11.5310  -13.9090 C.ar      1 5921224     0.0000 
     33 C22        -4.6820   12.9200  -13.8150 C.ar      1 5921224     0.0000 
     34 C28        -4.8850   13.5300  -12.5690 C.ar      1 5921224     0.0000 
     35 C9         -5.1180   12.7830  -11.4190 C.ar      1 5921224     0.0000 
     36 C29        -5.2050   11.3760  -11.5160 C.ar      1 5921224     0.0000 
     37 H          -3.9822    0.7986    1.7788 H         1 5921224     0.0000 
     38 H          -3.5127    0.3962   -0.5730 H         1 5921224     0.0000 
     39 H          -3.0492    2.2771   -2.0303 H         1 5921224     0.0000 
     40 H          -4.7040    4.0497   -2.7702 H         1 5921224     0.0000 
     41 H          -4.0645    6.8139   -3.3683 H         1 5921224     0.0000 
     42 H          -1.8068    5.5886   -3.9095 H         1 5921224     0.0000 
     43 H          -2.5101    6.6982   -5.0987 H         1 5921224     0.0000 
     44 H          -5.4578    6.4981   -5.1928 H         1 5921224     0.0000 
     45 H          -6.0722    5.2866   -4.0550 H         1 5921224     0.0000 
     46 H          -5.8306    4.3664   -6.3640 H         1 5921224     0.0000 
     47 H          -4.8703    2.3209   -5.7750 H         1 5921224     0.0000 
     48 H          -4.9608    3.0399   -4.1579 H         1 5921224     0.0000 
     49 H          -2.6290    2.4596   -5.7286 H         1 5921224     0.0000 
     50 H          -2.7166    3.1245   -4.0884 H         1 5921224     0.0000 
     51 H          -1.8069    4.5748   -6.2104 H         1 5921224     0.0000 
     52 H          -5.9685    5.5887   -7.9034 H         1 5921224     0.0000 
     53 H          -5.9725    7.0652   -9.8550 H         1 5921224     0.0000 
     54 H          -1.8190    7.5439   -9.4523 H         1 5921224     0.0000 
     55 H          -5.9254    8.1632  -11.2215 H         1 5921224     0.0000 
     56 H          -6.0677    9.0015  -13.4080 H         1 5921224     0.0000 
     57 H          -4.3056    8.9008  -13.5657 H         1 5921224     0.0000 
     58 H          -4.6269   11.0691  -14.8172 H         1 5921224     0.0000 
     59 H          -4.4806   13.4865  -14.6376 H         1 5921224     0.0000 
     60 H          -4.8599   14.5662  -12.5081 H         1 5921224     0.0000 
     61 H          -5.2261   13.2357  -10.5124 H         1 5921224     0.0000 
     62 H          -5.3990   10.8165  -10.6915 H         1 5921224     0.0000 
     63 H          -3.2873    5.5921    2.1008 H         1 5921224     0.0000 
     64 H          -3.7238    6.1322    0.6503 H         1 5921224     0.0000 
     65 H          -4.8384    5.5928    1.6764 H         1 5921224     0.0000 
     66 H          -3.9346    1.5021    3.8566 H         1 5921224     0.0000 
     67 H          -4.9095    2.4949    4.6629 H         1 5921224     0.0000 
     68 H          -5.4738    1.6516    3.4152 H         1 5921224     0.0000 
@<TRIPOS>BOND
     1    2    1 1    
     2   63    1 1    
     3   64    1 1    
     4   65    1 1    
     5    3    2 ar   
     6    9    2 ar   
     7    4    3 1    
     8    6    3 ar   
     9    5    4 1    
    10   66    5 1    
    11   67    5 1    
    12   68    5 1    
    13    7    6 ar   
    14   37    6 1    
    15    8    7 ar   
    16   38    7 1    
    17    9    8 ar   
    18   39    8 1    
    19   10    9 1    
    20   11   10 2    
    21   12   10 am   
    22   13   12 1    
    23   40   12 1    
    24   14   13 1    
    25   15   13 1    
    26   41   13 1    
    27   19   14 1    
    28   42   14 1    
    29   43   14 1    
    30   16   15 1    
    31   44   15 1    
    32   45   15 1    
    33   17   16 1    
    34   20   16 1    
    35   46   16 1    
    36   18   17 1    
    37   47   17 1    
    38   48   17 1    
    39   19   18 1    
    40   49   18 1    
    41   50   18 1    
    42   20   19 1    
    43   51   19 1    
    44   21   20 1    
    45   22   21 ar   
    46   24   21 ar   
    47   23   22 ar   
    48   52   22 1    
    49   26   23 ar   
    50   53   23 1    
    51   25   24 ar   
    52   26   25 ar   
    53   54   25 1    
    54   27   26 1    
    55   28   27 2    
    56   29   27 am   
    57   30   29 1    
    58   55   29 1    
    59   31   30 1    
    60   56   30 1    
    61   57   30 1    
    62   32   31 ar   
    63   36   31 ar   
    64   33   32 ar   
    65   58   32 1    
    66   34   33 ar   
    67   59   33 1    
    68   35   34 ar   
    69   60   34 1    
    70   36   35 ar   
    71   61   35 1    
    72   62   36 1    
@<TRIPOS>SUBSTRUCTURE
     1 5921224     1 GROUP   
@<TRIPOS>SET

