#    Name: 4m0f_1YK_2_INTS_M
#    Modification time : Tue Mar 25 11:40:53 2014

@<TRIPOS>MOLECULE
4m0f_1YK_2_INTS_M
   58     0     6     0     0
SMALL
NO_CHARGES


@<TRIPOS>ATOM
      1 CA         13.1265  -59.8460  -21.8230 C.3       2 GLC5        0.0000 
      2 CA         12.3770  -58.7550  -22.8970 C.3       6 GLL5        0.0000 
      3 CA         13.8760  -60.9370  -20.7490 C.3       4 GLP5        0.0000 
      4 CA         13.8310  -58.1870  -22.1845 C.3       2 GLC5        0.0000 
      5 CA         15.2850  -57.6190  -21.4720 C.3       4 GLP5        0.0000 
      6 CA         11.6770  -62.6125  -25.4535 C.3       2 GLC5        0.0000 
      7 CA         10.9340  -60.8840  -24.7320 C.3       6 GLL5        0.0000 
      8 CA         12.4200  -64.3410  -26.1750 C.3       4 GLP5        0.0000 
      9 CA         12.1540  -61.4925  -23.0145 C.3       2 GLC5        0.0000 
     10 CA         13.3740  -62.1010  -21.2970 C.3       4 GLP5        0.0000 
     11 CA          7.6770  -60.4370  -25.7225 C.3       2 GLC5        0.0000 
     12 CA          9.4700  -60.7210  -24.4140 C.3       6 GLL5        0.0000 
     13 CA          5.8840  -60.1530  -27.0310 C.3       4 GLP5        0.0000 
     14 CA          8.2185  -55.9255  -23.1920 C.3       2 GLC5        0.0000 
     15 CA          9.7920  -57.3510  -22.5670 C.3       6 GLL5        0.0000 
     16 CA          6.6450  -54.5000  -23.8170 C.3       4 GLP5        0.0000 
     17 CA          8.7550  -57.4775  -21.1195 C.3       2 GLC5        0.0000 
     18 CA          7.7180  -57.6040  -19.6720 C.3       4 GLP5        0.0000 
     19 CA         13.6720  -49.5055  -19.5425 C.3       2 GLC5        0.0000 
     20 CA         12.7010  -48.8420  -21.1820 C.3       6 GLL5        0.0000 
     21 CA         14.6430  -50.1690  -17.9030 C.3       4 GLP5        0.0000 
     22 CA         12.3275  -47.4795  -26.5275 C.3       2 GLC5        0.0000 
     23 CA         13.2560  -47.3480  -24.9740 C.3       6 GLL5        0.0000 
     24 CA         11.3990  -47.6110  -28.0810 C.3       4 GLP5        0.0000 
     25 CA         15.5985  -51.9475  -28.0620 C.3       2 GLC5        0.0000 
     26 CA         16.0090  -51.3030  -26.0370 C.3       6 GLL5        0.0000 
     27 CA         15.1880  -52.5920  -30.0870 C.3       4 GLP5        0.0000 
     28 O           9.7870  -57.0590  -25.7980 O.2       1 ALC1        0.0000 
     29 O           9.3270  -57.9130  -24.8500 O.2       5 ALL1        0.0000 
     30 O          10.2470  -56.2050  -26.7460 O.2       3 ALP1        0.0000 
     31 CA         10.1360  -63.7210  -25.0035 C.3       2 GLC5        0.0000 
     32 CA          8.8630  -62.1530  -24.2190 C.3       6 GLL5        0.0000 
     33 CA         11.4090  -65.2890  -25.7880 C.3       4 GLP5        0.0000 
     34 CA          9.5650  -64.3410  -25.9965 C.3       2 GLC5        0.0000 
     35 CA          8.8490  -62.8650  -25.5710 C.3       6 GLL5        0.0000 
     36 CA         10.2810  -65.8170  -26.4220 C.3       4 GLP5        0.0000 
     37 CA          7.3665  -61.5090  -26.3010 C.3       2 GLC5        0.0000 
     38 CA         10.6750  -64.4110  -23.9095 C.3       2 GLC5        0.0000 
     39 CA          9.6430  -63.1180  -23.3410 C.3       6 GLL5        0.0000 
     40 CA         11.7070  -65.7040  -24.4780 C.3       4 GLP5        0.0000 
     41 CA         11.0020  -62.9620  -22.0020 C.3       2 GLC5        0.0000 
     42 CA         12.3610  -62.8060  -20.6630 C.3       4 GLP5        0.0000 
     43 CA         10.7475  -61.2625  -20.6780 C.3       2 GLC5        0.0000 
     44 CA          9.6560  -60.1980  -21.8750 C.3       6 GLL5        0.0000 
     45 CA         11.8390  -62.3270  -19.4810 C.3       4 GLP5        0.0000 
     46 CA          8.0305  -61.1285  -20.8780 C.3       2 GLC5        0.0000 
     47 CA          6.4050  -62.0590  -19.8810 C.3       4 GLP5        0.0000 
     48 CA          8.5817  -58.7807  -21.1227 C.3       2 GLC5        0.0000 
     49 CA         13.0012  -54.2505  -22.2580 C.3       2 GLC5        0.0000 
     50 CA         12.2480  -54.8700  -24.3230 C.3       6 GLL5        0.0000 
     51 CA         13.9360  -54.2280  -20.4910 C.3       4 GLP5        0.0000 
     52 CA         13.1250  -52.9838  -22.0390 C.3       2 GLC5        0.0000 
     53 CA         12.5030  -52.3240  -23.9950 C.3       6 GLL5        0.0000 
     54 CA          6.5228  -60.7792  -25.2495 C.3       2 GLC5        0.0000 
     55 CA          6.9100  -60.8170  -23.2470 C.3       6 GLL5        0.0000 
     56 CA          5.1517  -61.6003  -22.9295 C.3       2 GLC5        0.0000 
     57 CA          3.1420  -61.7950  -22.3910 C.3       4 GLP5        0.0000 
     58 CA          6.7833  -61.7323  -21.6745 C.3       2 GLC5        0.0000 
@<TRIPOS>BOND
@<TRIPOS>SUBSTRUCTURE
     1 ALC1       28 GROUP        1 X    ALC  0     ROOT ALC X 1
     2 GLC5        1 GROUP        1 X    GLC  0     **** GLC X 6
     3 ALP1       30 GROUP        1 Y    ALP  0     ROOT ALP Y 8
     4 GLP5        3 GROUP        1 Y    GLP  0     **** GLP Y 13
     5 ALL1       29 GROUP        1 Z    ALL  0     ROOT ALL Z 15
     6 GLL5        2 GROUP        1 Z    GLL  0     **** GLL Z 20
@<TRIPOS>SET

