#    Name: 4m0f_1YK_2_ligand
#    Modification time : Tue Mar 25 11:40:53 2014

@<TRIPOS>MOLECULE
4m0f_1YK_2_ligand
   72    76     1     0     0
SMALL
NO_CHARGES


@<TRIPOS>ATOM
      1 C26        12.3770  -58.7550  -22.8970 C.3       1 1YK605      0.0000 
      2 C14        11.4290  -58.4840  -24.0510 C.3       1 1YK605      0.0000 
      3 C15        11.6070  -59.5740  -25.1300 C.3       1 1YK605      0.0000 
      4 C16        10.9340  -60.8840  -24.7320 C.3       1 1YK605      0.0000 
      5 C17         9.4700  -60.7210  -24.4140 C.3       1 1YK605      0.0000 
      6 C18         9.2350  -59.7170  -23.2720 C.3       1 1YK605      0.0000 
      7 C13         9.9340  -58.3850  -23.6600 C.3       1 1YK605      0.0000 
      8 C12         9.7920  -57.3510  -22.5670 C.3       1 1YK605      0.0000 
      9 C11        10.5560  -56.0990  -22.9850 C.2       1 1YK605      0.0000 
     10 C10        11.5000  -56.1290  -23.9240 C.2       1 1YK605      0.0000 
     11 C9         12.2480  -54.8700  -24.3230 C.2       1 1YK605      0.0000 
     12 C8         11.8850  -53.6760  -23.7270 C.2       1 1YK605      0.0000 
     13 O6         10.8530  -53.6390  -22.7520 O.3       1 1YK605      0.0000 
     14 C7         10.2580  -54.8080  -22.3030 C.2       1 1YK605      0.0000 
     15 O7          9.5070  -54.7270  -21.3650 O.2       1 1YK605      0.0000 
     16 C1         12.5030  -52.3240  -23.9950 C.ar      1 1YK605      0.0000 
     17 C6         13.4970  -51.9690  -25.0150 C.ar      1 1YK605      0.0000 
     18 C5         13.9430  -50.6610  -25.1070 C.ar      1 1YK605      0.0000 
     19 C4         13.5290  -49.6850  -24.3340 C.ar      1 1YK605      0.0000 
     20 C3         12.6610  -49.8980  -23.3810 C.ar      1 1YK605      0.0000 
     21 C2         12.1250  -51.1550  -23.1790 C.ar      1 1YK605      0.0000 
     22 O3         12.2130  -48.8610  -22.5270 O.3       1 1YK605      0.0000 
     23 C27        12.7010  -48.8420  -21.1820 C.3       1 1YK605      0.0000 
     24 O4         14.0840  -48.3920  -24.5010 O.3       1 1YK605      0.0000 
     25 C28        13.2560  -47.3480  -24.9740 C.3       1 1YK605      0.0000 
     26 O5         14.9030  -50.4170  -26.1000 O.3       1 1YK605      0.0000 
     27 C29        16.0090  -51.3030  -26.0370 C.3       1 1YK605      0.0000 
     28 O8         11.8600  -57.2770  -24.6130 O.3       1 1YK605      0.0000 
     29 O9          9.3270  -57.9130  -24.8500 O.3       1 1YK605      0.0000 
     30 C19         7.7350  -59.5870  -23.2030 C.2       1 1YK605      0.0000 
     31 O1          7.1380  -58.5250  -23.1040 O.2       1 1YK605      0.0000 
     32 C20         6.9100  -60.8170  -23.2470 C.2       1 1YK605      0.0000 
     33 C21         7.4130  -61.9940  -23.6890 C.2       1 1YK605      0.0000 
     34 C22         8.8630  -62.1530  -24.2190 C.3       1 1YK605      0.0000 
     35 C24         8.8490  -62.8650  -25.5710 C.3       1 1YK605      0.0000 
     36 C23         9.6430  -63.1180  -23.3410 C.3       1 1YK605      0.0000 
     37 C25         9.6560  -60.1980  -21.8750 C.3       1 1YK605      0.0000 
     38 O2          8.8190  -60.1790  -25.5400 O.3       1 1YK605      0.0000 
     39 H          12.6745  -59.7451  -25.2828 H         1 1YK605      0.0000 
     40 H          11.1767  -59.2138  -26.0666 H         1 1YK605      0.0000 
     41 H          11.4561  -61.2980  -23.8559 H         1 1YK605      0.0000 
     42 H          11.0529  -61.6067  -25.5536 H         1 1YK605      0.0000 
     43 H          10.2082  -57.7321  -21.6450 H         1 1YK605      0.0000 
     44 H           8.7489  -57.1034  -22.4294 H         1 1YK605      0.0000 
     45 H          12.9721  -54.9657  -25.0023 H         1 1YK605      0.0000 
     46 H          13.8315  -52.7021  -25.6297 H         1 1YK605      0.0000 
     47 H          11.4255  -51.3235  -22.4330 H         1 1YK605      0.0000 
     48 H           5.9353  -60.7180  -22.9214 H         1 1YK605      0.0000 
     49 H           6.8700  -62.8745  -23.7068 H         1 1YK605      0.0000 
     50 H          13.3323  -58.7530  -23.1928 H         1 1YK605      0.0000 
     51 H          12.2917  -58.0665  -22.1768 H         1 1YK605      0.0000 
     52 H          12.2029  -59.6444  -22.4743 H         1 1YK605      0.0000 
     53 H          13.6970  -48.7588  -21.1494 H         1 1YK605      0.0000 
     54 H          12.3256  -48.0750  -20.6615 H         1 1YK605      0.0000 
     55 H          12.4603  -49.6773  -20.6878 H         1 1YK605      0.0000 
     56 H          13.7551  -46.4851  -25.0532 H         1 1YK605      0.0000 
     57 H          12.8796  -47.5529  -25.8775 H         1 1YK605      0.0000 
     58 H          12.4809  -47.1834  -24.3640 H         1 1YK605      0.0000 
     59 H          16.6819  -51.1083  -26.7506 H         1 1YK605      0.0000 
     60 H          16.4854  -51.2405  -25.1600 H         1 1YK605      0.0000 
     61 H          15.7284  -52.2560  -26.1509 H         1 1YK605      0.0000 
     62 H           9.7683  -62.9512  -25.9549 H         1 1YK605      0.0000 
     63 H           8.4731  -63.7890  -25.5003 H         1 1YK605      0.0000 
     64 H           8.2953  -62.3740  -26.2436 H         1 1YK605      0.0000 
     65 H          10.5610  -63.2874  -23.6997 H         1 1YK605      0.0000 
     66 H           9.7518  -62.7684  -22.4104 H         1 1YK605      0.0000 
     67 H           9.1880  -64.0056  -23.2693 H         1 1YK605      0.0000 
     68 H          10.6309  -60.4170  -21.8358 H         1 1YK605      0.0000 
     69 H           9.4830  -59.5045  -21.1757 H         1 1YK605      0.0000 
     70 H           9.1594  -61.0214  -21.6004 H         1 1YK605      0.0000 
     71 H          10.0585  -57.4442  -25.3452 H         1 1YK605      0.0000 
     72 H           8.5634  -59.2509  -25.2692 H         1 1YK605      0.0000 
@<TRIPOS>BOND
     1    2    1 1    
     2   50    1 1    
     3   51    1 1    
     4   52    1 1    
     5    3    2 1    
     6    7    2 1    
     7   28    2 1    
     8    4    3 1    
     9   39    3 1    
    10   40    3 1    
    11    5    4 1    
    12   41    4 1    
    13   42    4 1    
    14    6    5 1    
    15   34    5 1    
    16   38    5 1    
    17    7    6 1    
    18   30    6 1    
    19   37    6 1    
    20    8    7 1    
    21   29    7 1    
    22    9    8 1    
    23   43    8 1    
    24   44    8 1    
    25   10    9 2    
    26   14    9 1    
    27   11   10 1    
    28   28   10 1    
    29   12   11 2    
    30   45   11 1    
    31   13   12 1    
    32   16   12 1    
    33   14   13 1    
    34   15   14 2    
    35   17   16 ar   
    36   21   16 ar   
    37   18   17 ar   
    38   46   17 1    
    39   19   18 ar   
    40   26   18 1    
    41   20   19 ar   
    42   24   19 1    
    43   21   20 ar   
    44   22   20 1    
    45   47   21 1    
    46   23   22 1    
    47   53   23 1    
    48   54   23 1    
    49   55   23 1    
    50   25   24 1    
    51   56   25 1    
    52   57   25 1    
    53   58   25 1    
    54   27   26 1    
    55   59   27 1    
    56   60   27 1    
    57   61   27 1    
    58   71   29 1    
    59   31   30 2    
    60   32   30 1    
    61   33   32 2    
    62   48   32 1    
    63   34   33 1    
    64   49   33 1    
    65   35   34 1    
    66   36   34 1    
    67   62   35 1    
    68   63   35 1    
    69   64   35 1    
    70   65   36 1    
    71   66   36 1    
    72   67   36 1    
    73   68   37 1    
    74   69   37 1    
    75   70   37 1    
    76   72   38 1    
@<TRIPOS>SUBSTRUCTURE
     1 1YK605      1 GROUP   
@<TRIPOS>SET

