#    Name: 3oy7_GDD_2_INTS_M
#    Modification time : Tue Mar 25 05:40:24 2014

@<TRIPOS>MOLECULE
3oy7_GDD_2_INTS_M
   72     0    12     0     0
SMALL
NO_CHARGES


@<TRIPOS>ATOM
      1 O         -35.2590  -19.8945    2.6700 O.2       1 ALC1        0.0000 
      2 O         -34.2850  -18.8620    1.8360 O.2       9 ALL1        0.0000 
      3 O         -36.2330  -20.9270    3.5040 O.2       5 ALP1        0.0000 
      4 O         -35.1785  -21.0750    2.6850 O.2       1 ALC1        0.0000 
      5 O         -34.1240  -21.2230    1.8660 O.2       9 ALL1        0.0000 
      6 CA        -30.6750  -23.0165    1.7255 C.3       4 GLC5        0.0000 
      7 CA        -32.2690  -22.2290    0.7120 C.3      12 GLL5        0.0000 
      8 CA        -29.0810  -23.8040    2.7390 C.3       8 GLP5        0.0000 
      9 N         -34.9765  -23.5860    2.7910 N.am      2 SEC2        0.0000 
     10 N         -33.8370  -23.4870    1.8030 N.am     10 SEL2        0.0000 
     11 N         -36.1160  -23.6850    3.7790 N.am      6 SEP2        0.0000 
     12 N         -32.4925  -23.3410   -1.0270 N.am      2 SEC2        0.0000 
     13 N         -31.4040  -23.0970    0.1960 N.am     10 SEL2        0.0000 
     14 N         -33.5810  -23.5850   -2.2500 N.am      6 SEP2        0.0000 
     15 O         -26.8245  -18.5255    0.3080 O.2       1 ALC1        0.0000 
     16 O         -28.0600  -19.6010    0.5480 O.2       9 ALL1        0.0000 
     17 O         -25.5890  -17.4500    0.0680 O.2       5 ALP1        0.0000 
     18 CA        -25.9470  -18.4720   -2.6635 C.3       4 GLC5        0.0000 
     19 CA        -27.8330  -19.3290   -1.8650 C.3      12 GLL5        0.0000 
     20 CA        -24.0610  -17.6150   -3.4620 C.3       8 GLP5        0.0000 
     21 O         -26.5760  -17.7195   -0.6860 O.2       1 ALC1        0.0000 
     22 O         -27.5630  -17.9890   -1.4400 O.2       9 ALL1        0.0000 
     23 NZ        -25.6020  -23.3845   -5.9775 N.4       3 LYC4        0.0000 
     24 NZ        -26.6680  -22.1930   -5.3430 N.4      11 LYL4        0.0000 
     25 NZ        -24.5360  -24.5760   -6.6120 N.4       7 LYP4        0.0000 
     26 N         -23.5160  -19.6680   -5.0150 N.am      2 SEC2        0.0000 
     27 N         -24.8240  -20.4170   -5.5870 N.am     10 SEL2        0.0000 
     28 N         -22.2080  -18.9190   -4.4430 N.am      6 SEP2        0.0000 
     29 NZ        -25.1310  -23.0105   -8.9610 N.4       3 LYC4        0.0000 
     30 NZ        -26.0400  -22.3070   -8.2670 N.4      11 LYL4        0.0000 
     31 NZ        -24.6760  -24.4490  -10.6590 N.4       7 LYP4        0.0000 
     32 NZ        -25.2880  -23.4415   -7.4395 N.4       3 LYC4        0.0000 
     33 N         -26.0005  -23.3475   -9.6300 N.am      2 SEC2        0.0000 
     34 N         -26.0400  -22.3070   -8.2670 N.am     10 SEL2        0.0000 
     35 N         -25.9610  -24.3880  -10.9930 N.am      6 SEP2        0.0000 
     36 N         -25.1310  -23.0105   -8.9610 N.am      2 SEC2        0.0000 
     37 N         -24.2220  -23.7140   -9.6550 N.am      6 SEP2        0.0000 
     38 N         -25.2880  -23.4415   -7.4395 N.am      2 SEC2        0.0000 
     39 N         -24.5360  -24.5760   -6.6120 N.am      6 SEP2        0.0000 
     40 CA        -25.4650  -16.8680   -6.7830 C.3       4 GLC5        0.0000 
     41 CA        -25.3240  -17.6010   -8.7680 C.3      12 GLL5        0.0000 
     42 CA        -25.6060  -16.1350   -4.7980 C.3       8 GLP5        0.0000 
     43 CA        -24.0780  -15.5840  -10.9590 C.3       4 GLC5        0.0000 
     44 CA        -25.3230  -16.3470   -9.6800 C.3      12 GLL5        0.0000 
     45 CA        -22.8330  -14.8210  -12.2380 C.3       8 GLP5        0.0000 
     46 CA        -23.9205  -21.3370  -11.7970 C.3       4 GLC5        0.0000 
     47 CA        -25.0800  -19.9790  -10.4450 C.3      12 GLL5        0.0000 
     48 CA        -22.7610  -22.6950  -13.1490 C.3       8 GLP5        0.0000 
     49 O         -25.1555  -18.3280  -12.3910 O.2       1 ALC1        0.0000 
     50 O         -24.6100  -19.2970  -11.6150 O.2       9 ALL1        0.0000 
     51 O         -25.7010  -17.3590  -13.1670 O.2       5 ALP1        0.0000 
     52 N         -21.7530  -20.3535  -10.6520 N.am      2 SEC2        0.0000 
     53 N         -22.7840  -20.2710   -9.7350 N.am     10 SEL2        0.0000 
     54 N         -20.7220  -20.4360  -11.5690 N.am      6 SEP2        0.0000 
     55 N         -21.5025  -19.3440   -9.7905 N.am      2 SEC2        0.0000 
     56 N         -20.2210  -18.4170   -9.8460 N.am      6 SEP2        0.0000 
     57 O         -22.1955  -21.2660   -8.9410 O.2       1 ALC1        0.0000 
     58 O         -22.7840  -20.2710   -9.7350 O.2       9 ALL1        0.0000 
     59 O         -21.6070  -22.2610   -8.1470 O.2       5 ALP1        0.0000 
     60 CA        -22.2480  -17.3945   -8.6295 C.3       4 GLC5        0.0000 
     61 CA        -23.9550  -18.3290   -8.8460 C.3      12 GLL5        0.0000 
     62 CA        -20.5410  -16.4600   -8.4130 C.3       8 GLP5        0.0000 
     63 N         -21.9655  -18.7165   -7.3150 N.am      2 SEC2        0.0000 
     64 N         -23.3150  -18.2880   -7.5640 N.am     10 SEL2        0.0000 
     65 N         -20.6160  -19.1450   -7.0660 N.am      6 SEP2        0.0000 
     66 N         -22.7615  -18.6035   -6.0035 N.am      2 SEC2        0.0000 
     67 CA        -31.6847  -21.1825    2.3267 C.3       4 GLC5        0.0000 
     68 CA        -31.8320  -20.9590    0.3550 C.3      12 GLL5        0.0000 
     69 CA        -31.3190  -20.7710    4.1200 C.3       8 GLP5        0.0000 
     70 CA        -26.8528  -20.9698   -1.2582 C.3       4 GLC5        0.0000 
     71 CA        -28.4220  -20.1580   -0.7200 C.3      12 GLL5        0.0000 
     72 CA        -25.5780  -22.1960   -1.2240 C.3       8 GLP5        0.0000 
@<TRIPOS>BOND
@<TRIPOS>SUBSTRUCTURE
     1 ALC1        1 GROUP        1 X    ALC  0     ROOT ALC X 1
     2 SEC2        9 GROUP        1 X    SEC  0     **** SEC X 2
     3 LYC4       23 GROUP        1 X    LYC  0     **** LYC X 4
     4 GLC5        6 GROUP        1 X    GLC  0     **** GLC X 6
     5 ALP1        3 GROUP        1 Y    ALP  0     ROOT ALP Y 8
     6 SEP2       11 GROUP        1 Y    SEP  0     **** SEP Y 9
     7 LYP4       25 GROUP        1 Y    LYP  0     **** LYP Y 11
     8 GLP5        8 GROUP        1 Y    GLP  0     **** GLP Y 13
     9 ALL1        2 GROUP        1 Z    ALL  0     ROOT ALL Z 15
    10 SEL2       10 GROUP        1 Z    SEL  0     **** SEL Z 16
    11 LYL4       24 GROUP        1 Z    LYL  0     **** LYL Z 18
    12 GLL5        7 GROUP        1 Z    GLL  0     **** GLL Z 20
@<TRIPOS>SET

