#    Name: 3oy7_GDD_2_ligand
#    Modification time : Tue Mar 25 05:40:24 2014

@<TRIPOS>MOLECULE
3oy7_GDD_2_ligand
   62    65     1     0     0
SMALL
NO_CHARGES


@<TRIPOS>ATOM
      1 N2        -34.2850  -18.8620    1.8360 N.pl3     1 GDD414      0.0000 
      2 C2        -33.6380  -19.9640    1.4760 C.2       1 GDD414      0.0000 
      3 N1        -34.1240  -21.2230    1.8660 N.am      1 GDD414      0.0000 
      4 N3        -32.5180  -19.8640    0.7400 N.2       1 GDD414      0.0000 
      5 C4        -31.8320  -20.9590    0.3550 C.2       1 GDD414      0.0000 
      6 C5        -32.2690  -22.2290    0.7120 C.2       1 GDD414      0.0000 
      7 C6        -33.4270  -22.3740    1.4750 C.2       1 GDD414      0.0000 
      8 O6        -33.8370  -23.4870    1.8030 O.2       1 GDD414      0.0000 
      9 N7        -31.4040  -23.0970    0.1960 N.2       1 GDD414      0.0000 
     10 C8        -30.4620  -22.4160   -0.4560 C.2       1 GDD414      0.0000 
     11 N9        -30.7190  -21.1100   -0.3580 N.pl3     1 GDD414      0.0000 
     12 C1'       -29.9190  -20.0010   -0.9510 C.3       1 GDD414      0.0000 
     13 C2'       -28.4220  -20.1580   -0.7200 C.3       1 GDD414      0.0000 
     14 O2'       -28.0600  -19.6010    0.5480 O.3       1 GDD414      0.0000 
     15 C3'       -27.8330  -19.3290   -1.8650 C.3       1 GDD414      0.0000 
     16 O3'       -27.5630  -17.9890   -1.4400 O.3       1 GDD414      0.0000 
     17 C4'       -28.9480  -19.2910   -2.9250 C.3       1 GDD414      0.0000 
     18 O4'       -30.0420  -20.0760   -2.3830 O.3       1 GDD414      0.0000 
     19 C5'       -28.5210  -19.9190   -4.2720 C.3       1 GDD414      0.0000 
     20 O5'       -27.1060  -19.7970   -4.5280 O.3       1 GDD414      0.0000 
     21 PA        -26.4090  -20.7570   -5.6310 P.3       1 GDD414      0.0000 
     22 O1A       -26.6680  -22.1930   -5.3430 O.co2     1 GDD414      0.0000 
     23 O2A       -24.8240  -20.4170   -5.5870 O.co2     1 GDD414      0.0000 
     24 O3A       -26.9770  -20.2720   -7.0600 O.3       1 GDD414      0.0000 
     25 PB        -27.3300  -21.3410   -8.2250 P.3       1 GDD414      0.0000 
     26 O2B       -26.0400  -22.3070   -8.2670 O.co2     1 GDD414      0.0000 
     27 O3B       -28.5750  -22.0850   -7.9110 O.co2     1 GDD414      0.0000 
     28 O1B       -27.3780  -20.5650   -9.6680 O.3       1 GDD414      0.0000 
     29 C11       -26.4880  -19.4630  -10.0620 C.3       1 GDD414      0.0000 
     30 O51       -26.5270  -18.4100   -9.0390 O.3       1 GDD414      0.0000 
     31 C51       -25.3240  -17.6010   -8.7680 C.3       1 GDD414      0.0000 
     32 C61       -25.3230  -16.3470   -9.6800 C.3       1 GDD414      0.0000 
     33 O6A       -26.4140  -15.4840   -9.3270 O.3       1 GDD414      0.0000 
     34 C21       -25.0800  -19.9790  -10.4450 C.3       1 GDD414      0.0000 
     35 O21       -24.6100  -19.2970  -11.6150 O.3       1 GDD414      0.0000 
     36 C31       -24.0670  -19.7960   -9.3060 C.3       1 GDD414      0.0000 
     37 O31       -22.7840  -20.2710   -9.7350 O.3       1 GDD414      0.0000 
     38 C41       -23.9550  -18.3290   -8.8460 C.3       1 GDD414      0.0000 
     39 O41       -23.3150  -18.2880   -7.5640 O.3       1 GDD414      0.0000 
     40 H         -33.8893  -17.9979    1.5248 H         1 GDD414      0.0000 
     41 H         -35.1096  -18.9956    2.3858 H         1 GDD414      0.0000 
     42 H         -34.9714  -21.2965    2.4252 H         1 GDD414      0.0000 
     43 H         -29.7042  -22.8089   -0.9301 H         1 GDD414      0.0000 
     44 H         -30.2305  -19.0598   -0.5974 H         1 GDD414      0.0000 
     45 H         -28.1587  -21.1582   -0.8539 H         1 GDD414      0.0000 
     46 H         -27.0057  -19.8278   -2.2679 H         1 GDD414      0.0000 
     47 H         -29.2484  -18.2848   -3.0802 H         1 GDD414      0.0000 
     48 H         -29.1167  -19.4292   -5.0651 H         1 GDD414      0.0000 
     49 H         -28.8363  -20.9792   -4.2535 H         1 GDD414      0.0000 
     50 H         -26.9218  -19.0297  -11.0099 H         1 GDD414      0.0000 
     51 H         -25.4026  -17.1900   -7.7248 H         1 GDD414      0.0000 
     52 H         -25.3963  -16.6966  -10.7139 H         1 GDD414      0.0000 
     53 H         -24.3546  -15.8540   -9.5542 H         1 GDD414      0.0000 
     54 H         -25.1667  -21.0479  -10.6416 H         1 GDD414      0.0000 
     55 H         -24.4172  -20.3824   -8.4554 H         1 GDD414      0.0000 
     56 H         -23.3452  -17.7986   -9.5816 H         1 GDD414      0.0000 
     57 H         -27.2977  -18.9844    0.3515 H         1 GDD414      0.0000 
     58 H         -26.7711  -18.0644   -0.8340 H         1 GDD414      0.0000 
     59 H         -26.4004  -14.7562  -10.0126 H         1 GDD414      0.0000 
     60 H         -25.3314  -18.6420  -11.8400 H         1 GDD414      0.0000 
     61 H         -22.5346  -20.9769   -9.0721 H         1 GDD414      0.0000 
     62 H         -23.8093  -18.9551   -7.0066 H         1 GDD414      0.0000 
@<TRIPOS>BOND
     1    2    1 1    
     2   40    1 1    
     3   41    1 1    
     4    3    2 1    
     5    4    2 2    
     6    7    3 am   
     7   42    3 1    
     8    5    4 1    
     9    6    5 2    
    10   11    5 1    
    11    7    6 1    
    12    9    6 1    
    13    8    7 2    
    14   10    9 2    
    15   11   10 1    
    16   43   10 1    
    17   12   11 1    
    18   13   12 1    
    19   18   12 1    
    20   44   12 1    
    21   14   13 1    
    22   15   13 1    
    23   45   13 1    
    24   57   14 1    
    25   16   15 1    
    26   17   15 1    
    27   46   15 1    
    28   58   16 1    
    29   18   17 1    
    30   19   17 1    
    31   47   17 1    
    32   20   19 1    
    33   48   19 1    
    34   49   19 1    
    35   21   20 1    
    36   22   21 ar   
    37   23   21 ar   
    38   24   21 1    
    39   25   24 1    
    40   26   25 ar   
    41   27   25 ar   
    42   28   25 1    
    43   29   28 1    
    44   30   29 1    
    45   34   29 1    
    46   50   29 1    
    47   31   30 1    
    48   32   31 1    
    49   38   31 1    
    50   51   31 1    
    51   33   32 1    
    52   52   32 1    
    53   53   32 1    
    54   59   33 1    
    55   35   34 1    
    56   36   34 1    
    57   54   34 1    
    58   60   35 1    
    59   37   36 1    
    60   38   36 1    
    61   55   36 1    
    62   61   37 1    
    63   39   38 1    
    64   56   38 1    
    65   62   39 1    
@<TRIPOS>SUBSTRUCTURE
     1 GDD414      1 GROUP   
@<TRIPOS>SET

