#    Name: 2q5k_AB1_1_INTS_M
#    Modification time : Mon Mar 24 20:46:59 2014

@<TRIPOS>MOLECULE
2q5k_AB1_1_INTS_M
  110     0     9     0     0
SMALL
NO_CHARGES


@<TRIPOS>ATOM
      1 CA         21.5120   28.4430    7.8695 C.3       3 GLC5        0.0000 
      2 CA         22.8720   26.9600    8.6950 C.3       9 GLL5        0.0000 
      3 CA         20.1520   29.9260    7.0440 C.3       6 GLP5        0.0000 
      4 O          22.6880   22.7290    9.3550 O.2       1 ALC1        0.0000 
      5 O          22.5750   24.1700    9.0120 O.2       7 ALL1        0.0000 
      6 O          22.8010   21.2880    9.6980 O.2       4 ALP1        0.0000 
      7 CA         22.8600   32.7020   17.9600 C.3       3 GLC5        0.0000 
      8 CA         22.0280   33.4870   16.1990 C.3       9 GLL5        0.0000 
      9 CA         23.6920   31.9170   19.7210 C.3       6 GLP5        0.0000 
     10 CA         23.9615   36.6060   14.1400 C.3       3 GLC5        0.0000 
     11 CA         22.6080   35.3800   14.8310 C.3       9 GLL5        0.0000 
     12 CA         25.3150   37.8320   13.4490 C.3       6 GLP5        0.0000 
     13 CA         23.8605   35.8495   12.9610 C.3       3 GLC5        0.0000 
     14 CA         22.8160   34.5020   13.7580 C.3       9 GLL5        0.0000 
     15 CA         24.9050   37.1970   12.1640 C.3       6 GLP5        0.0000 
     16 N          23.2810   23.7300   12.1675 N.am      2 SEC2        0.0000 
     17 N          22.5470   24.3900   11.2140 N.am      8 SEL2        0.0000 
     18 N          24.0150   23.0700   13.1210 N.am      5 SEP2        0.0000 
     19 CA         23.1665   25.9930   12.8900 C.3       3 GLC5        0.0000 
     20 CA         22.9900   27.1020   11.1820 C.3       9 GLL5        0.0000 
     21 CA         23.3430   24.8840   14.5980 C.3       6 GLP5        0.0000 
     22 O          20.7805   26.4010   13.2315 O.2       1 ALC1        0.0000 
     23 O          20.8990   27.5420   12.2660 O.2       7 ALL1        0.0000 
     24 O          20.6620   25.2600   14.1970 O.2       4 ALP1        0.0000 
     25 CA         25.1150   29.9820   13.7150 C.3       3 GLC5        0.0000 
     26 CA         24.4610   28.7190   12.4490 C.3       9 GLL5        0.0000 
     27 CA         25.7690   31.2450   14.9810 C.3       6 GLP5        0.0000 
     28 CA         26.9925   25.4435   11.1125 C.3       3 GLC5        0.0000 
     29 CA         25.5050   26.8940   11.0710 C.3       9 GLL5        0.0000 
     30 CA         28.4800   23.9930   11.1540 C.3       6 GLP5        0.0000 
     31 CA         27.2650   27.7120   11.3425 C.3       3 GLC5        0.0000 
     32 CA         29.0250   28.5300   11.6140 C.3       6 GLP5        0.0000 
     33 CA         26.5425   27.9560    9.5220 C.3       3 GLC5        0.0000 
     34 CA         27.5800   29.0180    7.9730 C.3       6 GLP5        0.0000 
     35 CA         16.5930   28.3005    7.1735 C.3       3 GLC5        0.0000 
     36 CA         17.8410   27.5710    8.3780 C.3       9 GLL5        0.0000 
     37 CA         15.3450   29.0300    5.9690 C.3       6 GLP5        0.0000 
     38 CA         16.6890   27.0030    6.9230 C.3       3 GLC5        0.0000 
     39 CA         18.4630   26.4140    7.9150 C.3       9 GLL5        0.0000 
     40 CA         14.9150   27.5920    5.9310 C.3       6 GLP5        0.0000 
     41 CA         16.9745   29.8020    9.7555 C.3       3 GLC5        0.0000 
     42 CA         17.8540   27.8790    9.7300 C.3       9 GLL5        0.0000 
     43 CA         16.0950   31.7250    9.7810 C.3       6 GLP5        0.0000 
     44 CA         16.2265   28.7370    8.4365 C.3       3 GLC5        0.0000 
     45 CA         14.5990   29.5950    7.1430 C.3       6 GLP5        0.0000 
     46 CA         17.7515   25.7670   13.2495 C.3       3 GLC5        0.0000 
     47 CA         18.4610   27.3660   12.0980 C.3       9 GLL5        0.0000 
     48 CA         17.0420   24.1680   14.4010 C.3       6 GLP5        0.0000 
     49 CA         16.7395   28.1370   12.8255 C.3       3 GLC5        0.0000 
     50 CA         15.0180   28.9080   13.5530 C.3       6 GLP5        0.0000 
     51 CA         19.7315   26.6405   15.2625 C.3       3 GLC5        0.0000 
     52 CA         19.4440   28.4370   14.0760 C.3       9 GLL5        0.0000 
     53 CA         20.0190   24.8440   16.4490 C.3       6 GLP5        0.0000 
     54 CA         17.2310   28.6725   13.8145 C.3       3 GLC5        0.0000 
     55 CA         16.4975   32.2120   12.7110 C.3       3 GLC5        0.0000 
     56 CA         17.5640   32.6660   14.3130 C.3       9 GLL5        0.0000 
     57 CA         15.4310   31.7580   11.1090 C.3       6 GLP5        0.0000 
     58 CA         18.7120   33.7555   12.8250 C.3       3 GLC5        0.0000 
     59 CA         19.8600   34.8450   11.3370 C.3       6 GLP5        0.0000 
     60 N          21.0580   28.1220   17.1085 N.am      2 SEC2        0.0000 
     61 N          20.4030   28.9020   16.2120 N.am      8 SEL2        0.0000 
     62 N          21.7130   27.3420   18.0050 N.am      5 SEP2        0.0000 
     63 O          19.0005   28.4735   16.3505 O.2       1 ALC1        0.0000 
     64 O          20.4030   28.9020   16.2120 O.2       7 ALL1        0.0000 
     65 O          17.5980   28.0450   16.4890 O.2       4 ALP1        0.0000 
     66 CA         14.0910   36.8720   16.1505 C.3       3 GLC5        0.0000 
     67 CA         15.1560   35.7480   17.4580 C.3       9 GLL5        0.0000 
     68 CA         13.0260   37.9960   14.8430 C.3       6 GLP5        0.0000 
     69 CA         13.1305   31.9815   14.5365 C.3       3 GLC5        0.0000 
     70 CA         14.5440   32.4870   15.6100 C.3       9 GLL5        0.0000 
     71 CA         11.7170   31.4760   13.4630 C.3       6 GLP5        0.0000 
     72 CA         14.2440   30.5570   16.0735 C.3       3 GLC5        0.0000 
     73 CA         13.9440   28.6270   16.5370 C.3       6 GLP5        0.0000 
     74 CA         25.1375   26.9195    6.7980 C.3       3 GLC5        0.0000 
     75 CA         23.5400   26.0140    7.7090 C.3       9 GLL5        0.0000 
     76 CA         26.7350   27.8250    5.8870 C.3       6 GLP5        0.0000 
     77 CA         23.9595   34.3805   16.6015 C.3       3 GLC5        0.0000 
     78 CA         25.7970   34.5830   17.0760 C.3       6 GLP5        0.0000 
     79 CA         24.2545   34.7620   15.6852 C.3       3 GLC5        0.0000 
     80 CA         22.9765   33.8167   11.8910 C.3       3 GLC5        0.0000 
     81 CA         23.2330   33.8200    9.9560 C.3       6 GLP5        0.0000 
     82 CA         21.2640   34.4390   12.7156 C.3       3 GLC5        0.0000 
     83 CA         22.6240   33.1250   13.8940 C.3       9 GLL5        0.0000 
     84 CA         25.1805   29.8867   11.3205 C.3       3 GLC5        0.0000 
     85 CA         25.9680   31.4820   10.8240 C.3       6 GLP5        0.0000 
     86 CA         24.6675   26.7439   13.2315 C.3       3 GLC5        0.0000 
     87 CA         24.3860   25.8950   15.0190 C.3       6 GLP5        0.0000 
     88 CA         16.7025   25.7378    8.5783 C.3       3 GLC5        0.0000 
     89 CA         15.2530   24.4830    9.0100 C.3       6 GLP5        0.0000 
     90 CA         17.1707   25.0968    9.2508 C.3       3 GLC5        0.0000 
     91 CA         19.0920   25.5610    8.8140 C.3       9 GLL5        0.0000 
     92 CA         16.7120   25.9705    9.5943 C.3       3 GLC5        0.0000 
     93 CA         18.4880   27.0370   10.6270 C.3       9 GLL5        0.0000 
     94 CA         19.0775   28.6809    7.9911 C.3       3 GLC5        0.0000 
     95 CA         23.9899   31.6205   14.9447 C.3       3 GLC5        0.0000 
     96 CA         21.9980   31.1230   15.3060 C.3       9 GLL5        0.0000 
     97 CA         13.3305   35.1237   18.3275 C.3       3 GLC5        0.0000 
     98 CA         14.5200   34.6650   16.8560 C.3       9 GLL5        0.0000 
     99 CA         11.8230   35.0410   19.4980 C.3       6 GLP5        0.0000 
    100 CA         17.6648   33.1380   17.9992 C.3       3 GLC5        0.0000 
    101 CA         17.2900   34.7730   16.8980 C.3       9 GLL5        0.0000 
    102 CA         17.2850   31.4710   19.0810 C.3       6 GLP5        0.0000 
    103 CA         16.3695   35.5182   19.1496 C.3       3 GLC5        0.0000 
    104 CA         16.1700   35.7620   21.1180 C.3       6 GLP5        0.0000 
    105 CA         15.7477   31.9111   17.1107 C.3       3 GLC5        0.0000 
    106 CA         16.6480   33.6960   16.2900 C.3       9 GLL5        0.0000 
    107 CA         16.2470   30.7460   18.2750 C.3       6 GLP5        0.0000 
    108 CA         13.8872   34.3663   14.6490 C.3       3 GLC5        0.0000 
    109 CA         15.2580   33.6350   16.2760 C.3       9 GLL5        0.0000 
    110 CA         13.0580   35.4140   13.2100 C.3       6 GLP5        0.0000 
@<TRIPOS>BOND
@<TRIPOS>SUBSTRUCTURE
     1 ALC1        4 GROUP        1 X    ALC  0     ROOT ALC X 1
     2 SEC2       16 GROUP        1 X    SEC  0     **** SEC X 2
     3 GLC5        1 GROUP        1 X    GLC  0     **** GLC X 6
     4 ALP1        6 GROUP        1 Y    ALP  0     ROOT ALP Y 8
     5 SEP2       18 GROUP        1 Y    SEP  0     **** SEP Y 9
     6 GLP5        3 GROUP        1 Y    GLP  0     **** GLP Y 13
     7 ALL1        5 GROUP        1 Z    ALL  0     ROOT ALL Z 15
     8 SEL2       17 GROUP        1 Z    SEL  0     **** SEL Z 16
     9 GLL5        2 GROUP        1 Z    GLL  0     **** GLL Z 20
@<TRIPOS>SET

