#    Name: 2q5k_AB1_1_ligand
#    Modification time : Mon Mar 24 20:46:59 2014

@<TRIPOS>MOLECULE
2q5k_AB1_1_ligand
   94    97     1     0     0
SMALL
NO_CHARGES


@<TRIPOS>ATOM
      1 C1         22.7850   24.6920    7.6740 C.3       1 AB1201      0.0000 
      2 C2         22.8720   26.9600    8.6950 C.3       1 AB1201      0.0000 
      3 N1         22.8430   26.2470    9.9800 N.am      1 AB1201      0.0000 
      4 C3         22.6460   24.9220   10.1120 C.2       1 AB1201      0.0000 
      5 N2         22.5750   24.1700    9.0120 N.am      1 AB1201      0.0000 
      6 C4         22.2230   32.6130   15.1280 C.ar      1 AB1201      0.0000 
      7 C5         22.0280   33.4870   16.1990 C.ar      1 AB1201      0.0000 
      8 C6         22.2160   34.8690   16.0550 C.ar      1 AB1201      0.0000 
      9 C7         22.6080   35.3800   14.8310 C.ar      1 AB1201      0.0000 
     10 C8         22.8160   34.5020   13.7580 C.ar      1 AB1201      0.0000 
     11 C9         22.6240   33.1250   13.8940 C.ar      1 AB1201      0.0000 
     12 O1         22.5470   24.3900   11.2140 O.2       1 AB1201      0.0000 
     13 C10        22.9900   27.1020   11.1820 C.3       1 AB1201      0.0000 
     14 C11        21.7670   27.9750   11.3490 C.2       1 AB1201      0.0000 
     15 N3         20.8990   27.5420   12.2660 N.am      1 AB1201      0.0000 
     16 C12        19.6460   28.2150   12.5740 C.3       1 AB1201      0.0000 
     17 C13        24.3250   27.8640   11.1850 C.3       1 AB1201      0.0000 
     18 C14        24.4610   28.7190   12.4490 C.3       1 AB1201      0.0000 
     19 C15        25.5050   26.8940   11.0710 C.3       1 AB1201      0.0000 
     20 O2         21.5840   28.9760   10.6680 O.2       1 AB1201      0.0000 
     21 C16        17.8410   27.5710    8.3780 C.ar      1 AB1201      0.0000 
     22 C17        18.4630   26.4140    7.9150 C.ar      1 AB1201      0.0000 
     23 C18        19.0920   25.5610    8.8140 C.ar      1 AB1201      0.0000 
     24 C19        19.0850   25.8600   10.1690 C.ar      1 AB1201      0.0000 
     25 C20        18.4880   27.0370   10.6270 C.ar      1 AB1201      0.0000 
     26 C21        17.8540   27.8790    9.7300 C.ar      1 AB1201      0.0000 
     27 C22        18.4610   27.3660   12.0980 C.3       1 AB1201      0.0000 
     28 C23        19.4440   28.4370   14.0760 C.3       1 AB1201      0.0000 
     29 C24        20.6100   29.1040   14.8020 C.3       1 AB1201      0.0000 
     30 C25        20.7920   30.6000   14.5020 C.3       1 AB1201      0.0000 
     31 N4         19.5940   31.3660   14.8060 N.am      1 AB1201      0.0000 
     32 C26        18.7790   31.8830   13.8680 C.2       1 AB1201      0.0000 
     33 C27        17.5640   32.6660   14.3130 C.3       1 AB1201      0.0000 
     34 O3         17.3860   32.6890   15.7200 O.3       1 AB1201      0.0000 
     35 C28        16.6480   33.6960   16.2900 C.ar      1 AB1201      0.0000 
     36 O4         20.4030   28.9020   16.2120 O.3       1 AB1201      0.0000 
     37 C29        21.9980   31.1230   15.3060 C.3       1 AB1201      0.0000 
     38 O5         18.9350   31.7700   12.6620 O.2       1 AB1201      0.0000 
     39 C30        15.2580   33.6350   16.2760 C.ar      1 AB1201      0.0000 
     40 C31        14.5200   34.6650   16.8560 C.ar      1 AB1201      0.0000 
     41 C32        15.1560   35.7480   17.4580 C.ar      1 AB1201      0.0000 
     42 C33        16.5400   35.8040   17.4710 C.ar      1 AB1201      0.0000 
     43 C34        17.2900   34.7730   16.8980 C.ar      1 AB1201      0.0000 
     44 C35        18.7990   34.8370   16.9370 C.3       1 AB1201      0.0000 
     45 C36        14.5440   32.4870   15.6100 C.3       1 AB1201      0.0000 
     46 C37        23.5400   26.0140    7.7090 C.3       1 AB1201      0.0000 
     47 H          21.8259   24.8596    7.1621 H         1 AB1201      0.0000 
     48 H          23.3633   23.9843    7.0618 H         1 AB1201      0.0000 
     49 H          23.4569   27.8603    8.7661 H         1 AB1201      0.0000 
     50 H          21.8757   27.1765    8.3510 H         1 AB1201      0.0000 
     51 H          22.3587   23.1416    9.0663 H         1 AB1201      0.0000 
     52 H          21.7390   33.1101   17.1182 H         1 AB1201      0.0000 
     53 H          22.0619   35.4888   16.8560 H         1 AB1201      0.0000 
     54 H          22.7467   36.3844   14.7016 H         1 AB1201      0.0000 
     55 H          23.1189   34.8851   12.8445 H         1 AB1201      0.0000 
     56 H          22.7755   32.5021   13.0997 H         1 AB1201      0.0000 
     57 H          23.0164   26.4131   12.0683 H         1 AB1201      0.0000 
     58 H          21.0868   26.6677   12.8250 H         1 AB1201      0.0000 
     59 H          19.5755   29.1703   12.0815 H         1 AB1201      0.0000 
     60 H          24.3422   28.5242   10.3236 H         1 AB1201      0.0000 
     61 H          17.3697   28.1993    7.7107 H         1 AB1201      0.0000 
     62 H          18.4561   26.1932    6.9124 H         1 AB1201      0.0000 
     63 H          19.5607   24.7115    8.4753 H         1 AB1201      0.0000 
     64 H          19.5203   25.2147   10.8427 H         1 AB1201      0.0000 
     65 H          17.3908   28.7360   10.0660 H         1 AB1201      0.0000 
     66 H          17.5265   27.9050   12.3374 H         1 AB1201      0.0000 
     67 H          18.4444   26.4295   12.6843 H         1 AB1201      0.0000 
     68 H          19.2377   27.4585   14.5541 H         1 AB1201      0.0000 
     69 H          18.5326   29.0503   14.2240 H         1 AB1201      0.0000 
     70 H          21.5271   28.5838   14.5006 H         1 AB1201      0.0000 
     71 H          21.0487   30.6920   13.4464 H         1 AB1201      0.0000 
     72 H          19.3907   31.4995   15.8304 H         1 AB1201      0.0000 
     73 H          16.6758   32.2278   13.8002 H         1 AB1201      0.0000 
     74 H          17.6600   33.6979   13.9007 H         1 AB1201      0.0000 
     75 H          21.8325   30.9018   16.3678 H         1 AB1201      0.0000 
     76 H          22.8942   30.5765   14.9869 H         1 AB1201      0.0000 
     77 H          13.4875   34.6244   16.8391 H         1 AB1201      0.0000 
     78 H          14.6015   36.4957   17.8870 H         1 AB1201      0.0000 
     79 H          17.0225   36.6042   17.9022 H         1 AB1201      0.0000 
     80 H          23.5328   26.4593    6.7193 H         1 AB1201      0.0000 
     81 H          24.5651   25.8353    8.0173 H         1 AB1201      0.0000 
     82 H          25.3270   29.2186   12.4680 H         1 AB1201      0.0000 
     83 H          23.7296   29.3974   12.5190 H         1 AB1201      0.0000 
     84 H          24.4252   28.1628   13.2793 H         1 AB1201      0.0000 
     85 H          26.3820   27.3745   11.0707 H         1 AB1201      0.0000 
     86 H          25.5268   26.2447   11.8312 H         1 AB1201      0.0000 
     87 H          25.4645   26.3573   10.2282 H         1 AB1201      0.0000 
     88 H          19.1916   34.0537   17.4191 H         1 AB1201      0.0000 
     89 H          19.1943   34.8440   16.0185 H         1 AB1201      0.0000 
     90 H          19.1239   35.6604   17.4022 H         1 AB1201      0.0000 
     91 H          14.7672   32.4250   14.6372 H         1 AB1201      0.0000 
     92 H          14.7865   31.6091   16.0229 H         1 AB1201      0.0000 
     93 H          13.5505   32.5782   15.6775 H         1 AB1201      0.0000 
     94 H          19.4123   28.9530   16.3379 H         1 AB1201      0.0000 
@<TRIPOS>BOND
     1    5    1 1    
     2   46    1 1    
     3   47    1 1    
     4   48    1 1    
     5    3    2 1    
     6   46    2 1    
     7   49    2 1    
     8   50    2 1    
     9    4    3 am   
    10   13    3 1    
    11    5    4 am   
    12   12    4 2    
    13   51    5 1    
    14    7    6 ar   
    15   11    6 ar   
    16   37    6 1    
    17    8    7 ar   
    18   52    7 1    
    19    9    8 ar   
    20   53    8 1    
    21   10    9 ar   
    22   54    9 1    
    23   11   10 ar   
    24   55   10 1    
    25   56   11 1    
    26   14   13 1    
    27   17   13 1    
    28   57   13 1    
    29   15   14 am   
    30   20   14 2    
    31   16   15 1    
    32   58   15 1    
    33   27   16 1    
    34   28   16 1    
    35   59   16 1    
    36   18   17 1    
    37   19   17 1    
    38   60   17 1    
    39   82   18 1    
    40   83   18 1    
    41   84   18 1    
    42   85   19 1    
    43   86   19 1    
    44   87   19 1    
    45   22   21 ar   
    46   26   21 ar   
    47   61   21 1    
    48   23   22 ar   
    49   62   22 1    
    50   24   23 ar   
    51   63   23 1    
    52   25   24 ar   
    53   64   24 1    
    54   26   25 ar   
    55   27   25 1    
    56   65   26 1    
    57   66   27 1    
    58   67   27 1    
    59   29   28 1    
    60   68   28 1    
    61   69   28 1    
    62   30   29 1    
    63   36   29 1    
    64   70   29 1    
    65   31   30 1    
    66   37   30 1    
    67   71   30 1    
    68   32   31 am   
    69   72   31 1    
    70   33   32 1    
    71   38   32 2    
    72   34   33 1    
    73   73   33 1    
    74   74   33 1    
    75   35   34 1    
    76   39   35 ar   
    77   43   35 ar   
    78   94   36 1    
    79   75   37 1    
    80   76   37 1    
    81   40   39 ar   
    82   45   39 1    
    83   41   40 ar   
    84   77   40 1    
    85   42   41 ar   
    86   78   41 1    
    87   43   42 ar   
    88   79   42 1    
    89   44   43 1    
    90   88   44 1    
    91   89   44 1    
    92   90   44 1    
    93   91   45 1    
    94   92   45 1    
    95   93   45 1    
    96   80   46 1    
    97   81   46 1    
@<TRIPOS>SUBSTRUCTURE
     1 AB1201      1 GROUP   
@<TRIPOS>SET

