#    Name: 3k56_IS3_2_INTS_M
#    Modification time : Mon Mar 24 18:21:24 2014

@<TRIPOS>MOLECULE
3k56_IS3_2_INTS_M
   48     0     6     0     0
SMALL
NO_CHARGES


@<TRIPOS>ATOM
      1 N          26.8260   19.3915   30.4095 N.am      1 SEC2        0.0000 
      2 N          26.4410   20.6020   31.2240 N.am      5 SEL2        0.0000 
      3 N          27.2110   18.1810   29.5950 N.am      3 SEP2        0.0000 
      4 N          28.0395   19.2640   30.6660 N.am      1 SEC2        0.0000 
      5 N          28.8680   20.3470   31.7370 N.am      5 SEL2        0.0000 
      6 N          28.3470   23.6095   31.1260 N.am      1 SEC2        0.0000 
      7 N          27.8850   22.6650   31.3160 N.am      5 SEL2        0.0000 
      8 N          28.8090   24.5540   30.9360 N.am      3 SEP2        0.0000 
      9 CA         28.2025   15.8490   34.0465 C.3       2 GLC5        0.0000 
     10 CA         29.9420   16.5710   33.3620 C.3       6 GLL5        0.0000 
     11 CA         26.4630   15.1270   34.7310 C.3       4 GLP5        0.0000 
     12 CA         31.5055   16.6725   34.6280 C.3       2 GLC5        0.0000 
     13 CA         33.0690   16.7740   35.8940 C.3       4 GLP5        0.0000 
     14 N          25.6355   18.4060   33.6550 N.am      1 SEC2        0.0000 
     15 N          25.3100   19.6510   33.2700 N.am      5 SEL2        0.0000 
     16 N          25.9610   17.1610   34.0400 N.am      3 SEP2        0.0000 
     17 CA         33.2915   15.0485   31.5870 C.3       2 GLC5        0.0000 
     18 CA         31.7940   16.6020   31.7160 C.3       6 GLL5        0.0000 
     19 CA         34.7890   13.4950   31.4580 C.3       4 GLP5        0.0000 
     20 CA         33.0515   17.7430   30.5705 C.3       2 GLC5        0.0000 
     21 CA         34.3090   18.8840   29.4250 C.3       4 GLP5        0.0000 
     22 N          24.9030   17.6465   30.3690 N.am      1 SEC2        0.0000 
     23 N          24.6530   18.8430   30.8760 N.am      5 SEL2        0.0000 
     24 N          25.1530   16.4500   29.8620 N.am      3 SEP2        0.0000 
     25 CA         24.1095   23.2270   30.6100 C.3       2 GLC5        0.0000 
     26 CA         23.6210   21.4450   31.5880 C.3       6 GLL5        0.0000 
     27 CA         24.5980   25.0090   29.6320 C.3       4 GLP5        0.0000 
     28 CA         22.1710   21.8795   30.0660 C.3       2 GLC5        0.0000 
     29 CA         20.7210   22.3140   28.5440 C.3       4 GLP5        0.0000 
     30 CA         22.8775   20.1045   30.0960 C.3       2 GLC5        0.0000 
     31 CA         22.1340   18.7640   28.6040 C.3       4 GLP5        0.0000 
     32 CA         25.0945   20.8825   30.1305 C.3       2 GLC5        0.0000 
     33 CA         26.5680   20.3200   28.6730 C.3       4 GLP5        0.0000 
     34 CA         28.6435   17.8238   30.8555 C.3       2 GLC5        0.0000 
     35 CA         29.0740   19.1110   32.3970 C.3       6 GLL5        0.0000 
     36 CA         27.5490   16.7700   29.6030 C.3       4 GLP5        0.0000 
     37 CA         30.4235   19.8483   30.5640 C.3       2 GLC5        0.0000 
     38 CA         31.1090   20.8190   29.0200 C.3       4 GLP5        0.0000 
     39 CA         31.0385   19.1528   33.5085 C.3       2 GLC5        0.0000 
     40 CA         30.4020   18.6440   31.8190 C.3       6 GLL5        0.0000 
     41 CA         32.3390   19.4280   34.9090 C.3       4 GLP5        0.0000 
     42 CA         28.9500   16.8372   31.2100 C.3       2 GLC5        0.0000 
     43 CA         30.7600   17.2380   32.2720 C.3       6 GLL5        0.0000 
     44 CA         30.9820   16.2685   30.0810 C.3       2 GLC5        0.0000 
     45 CA         30.6870   15.6170   28.1680 C.3       4 GLP5        0.0000 
     46 CA         31.8080   18.1740   33.4515 C.3       2 GLC5        0.0000 
     47 CA         30.2417   15.2466   31.6318 C.3       2 GLC5        0.0000 
     48 CA         29.4110   13.7400   30.9970 C.3       4 GLP5        0.0000 
@<TRIPOS>BOND
@<TRIPOS>SUBSTRUCTURE
     1 SEC2        1 GROUP        1 X    SEC  0     ROOT SEC X 2
     2 GLC5        9 GROUP        1 X    GLC  0     **** GLC X 6
     3 SEP2        3 GROUP        1 Y    SEP  0     ROOT SEP Y 9
     4 GLP5       11 GROUP        1 Y    GLP  0     **** GLP Y 13
     5 SEL2        2 GROUP        1 Z    SEL  0     ROOT SEL Z 16
     6 GLL5       10 GROUP        1 Z    GLL  0     **** GLL Z 20
@<TRIPOS>SET

