#    Name: 3k56_IS3_2_ligand
#    Modification time : Mon Mar 24 18:21:24 2014

@<TRIPOS>MOLECULE
3k56_IS3_2_ligand
   25    24     1     0     0
SMALL
NO_CHARGES


@<TRIPOS>ATOM
      1 O          26.4410   20.6020   31.2240 O.3       1 IS3300      0.0000 
      2 C1         29.0740   19.1110   32.3970 C.3       1 IS3300      0.0000 
      3 O1         28.8680   20.3470   31.7370 O.3       1 IS3300      0.0000 
      4 P1         27.6240   21.3410   32.0210 P.3       1 IS3300      0.0000 
      5 C2         30.4020   18.6440   31.8190 C.3       1 IS3300      0.0000 
      6 O2         27.8850   22.6650   31.3160 O.co2     1 IS3300      0.0000 
      7 P2         25.0300   20.0240   31.8050 P.3       1 IS3300      0.0000 
      8 C3         30.7600   17.2380   32.2720 C.3       1 IS3300      0.0000 
      9 O3         27.4720   21.2370   33.5160 O.co2     1 IS3300      0.0000 
     10 C4         29.9420   16.5710   33.3620 C.3       1 IS3300      0.0000 
     11 O4         25.3100   19.6510   33.2700 O.co2     1 IS3300      0.0000 
     12 C5         31.7940   16.6020   31.7160 C.3       1 IS3300      0.0000 
     13 O5         24.6530   18.8430   30.8760 O.co2     1 IS3300      0.0000 
     14 S6         23.6210   21.4450   31.5880 S.3       1 IS3300      0.0000 
     15 H          28.3273   18.3841   32.1534 H         1 IS3300      0.0000 
     16 H          29.1888   19.2227   33.4551 H         1 IS3300      0.0000 
     17 H          31.1927   19.3356   32.1306 H         1 IS3300      0.0000 
     18 H          30.3458   18.6671   30.7250 H         1 IS3300      0.0000 
     19 H          29.8494   16.7070   31.2841 H         1 IS3300      0.0000 
     20 H          30.2748   15.6502   33.5652 H         1 IS3300      0.0000 
     21 H          29.9708   17.0885   34.2172 H         1 IS3300      0.0000 
     22 H          28.9797   16.4846   33.1039 H         1 IS3300      0.0000 
     23 H          32.6521   17.0965   31.8542 H         1 IS3300      0.0000 
     24 H          31.9177   15.6872   32.1005 H         1 IS3300      0.0000 
     25 H          31.6750   16.4915   30.7293 H         1 IS3300      0.0000 
@<TRIPOS>BOND
     1    4    1 1    
     2    7    1 1    
     3    3    2 1    
     4    5    2 1    
     5   15    2 1    
     6   16    2 1    
     7    4    3 1    
     8    6    4 ar   
     9    9    4 ar   
    10    8    5 1    
    11   17    5 1    
    12   18    5 1    
    13   11    7 ar   
    14   13    7 ar   
    15   14    7 1    
    16   10    8 1    
    17   12    8 1    
    18   19    8 1    
    19   20   10 1    
    20   21   10 1    
    21   22   10 1    
    22   23   12 1    
    23   24   12 1    
    24   25   12 1    
@<TRIPOS>SUBSTRUCTURE
     1 IS3300      1 GROUP   
@<TRIPOS>SET

