#    Name: 3hrb_I39_1_INTS_M
#    Modification time : Tue Mar 25 14:53:16 2014

@<TRIPOS>MOLECULE
3hrb_I39_1_INTS_M
   65     0     6     0     0
SMALL
NO_CHARGES


@<TRIPOS>ATOM
      1 CA          3.2575   32.2590   34.4105 C.3       2 GLC5        0.0000 
      2 CA          4.4390   32.2310   33.0770 C.3       6 GLL5        0.0000 
      3 CA          2.0760   32.2870   35.7440 C.3       4 GLP5        0.0000 
      4 CA          5.6255   33.2660   34.6330 C.3       2 GLC5        0.0000 
      5 CA          6.8120   34.3010   36.1890 C.3       4 GLP5        0.0000 
      6 CA          3.2725   30.7775   28.4495 C.3       2 GLC5        0.0000 
      7 CA          4.7900   30.3370   30.0050 C.3       6 GLL5        0.0000 
      8 CA          1.7550   31.2180   26.8940 C.3       4 GLP5        0.0000 
      9 CA          7.3650   30.0165   28.1905 C.3       2 GLC5        0.0000 
     10 CA          6.1660   30.4330   29.8100 C.3       6 GLL5        0.0000 
     11 CA          8.5640   29.6000   26.5710 C.3       4 GLP5        0.0000 
     12 CA         10.0280   31.9050   30.0670 C.3       2 GLC5        0.0000 
     13 CA          8.2770   31.2680   30.5650 C.3       6 GLL5        0.0000 
     14 CA         11.7790   32.5420   29.5690 C.3       4 GLP5        0.0000 
     15 N          -0.2800   36.7550   30.1380 N.am      1 SEC2        0.0000 
     16 N          -0.3950   35.5130   30.4990 N.am      5 SEL2        0.0000 
     17 N          -0.1650   37.9970   29.7770 N.am      3 SEP2        0.0000 
     18 N          -1.5315   36.3630   30.5895 N.am      1 SEC2        0.0000 
     19 N          -2.6680   37.2130   30.6800 N.am      3 SEP2        0.0000 
     20 CA          1.2965   32.2060   33.6815 C.3       2 GLC5        0.0000 
     21 CA          0.5170   32.1250   31.6190 C.3       6 GLL5        0.0000 
     22 CA         -1.9390   33.0685   27.9335 C.3       2 GLC5        0.0000 
     23 CA         -2.5250   32.3920   29.7060 C.3       6 GLL5        0.0000 
     24 CA         -1.3530   33.7450   26.1610 C.3       4 GLP5        0.0000 
     25 CA         -1.4270   31.1990   28.6615 C.3       2 GLC5        0.0000 
     26 CA         -0.3290   30.0060   27.6170 C.3       4 GLP5        0.0000 
     27 CA         -0.8645   35.7335   33.4775 C.3       2 GLC5        0.0000 
     28 CA         -1.8390   33.8600   33.1590 C.3       6 GLL5        0.0000 
     29 CA          0.1100   37.6070   33.7960 C.3       4 GLP5        0.0000 
     30 CA          4.0303   33.6418   32.8660 C.3       2 GLC5        0.0000 
     31 CA          4.9840   31.6400   32.0030 C.3       6 GLL5        0.0000 
     32 CA          3.3490   35.3480   33.1920 C.3       4 GLP5        0.0000 
     33 CA          5.6167   30.8238   33.7020 C.3       2 GLC5        0.0000 
     34 CA          6.5220   29.7120   34.8640 C.3       4 GLP5        0.0000 
     35 CA          5.0304   33.1657   30.9951 C.3       2 GLC5        0.0000 
     36 CA          5.5460   34.5710   29.6750 C.3       4 GLP5        0.0000 
     37 CA          6.5873   30.5738   33.0660 C.3       2 GLC5        0.0000 
     38 CA          6.3560   31.7360   31.8160 C.3       6 GLL5        0.0000 
     39 CA          5.8250   28.7765   31.3023 C.3       2 GLC5        0.0000 
     40 CA          6.1720   27.1680   32.6970 C.3       4 GLP5        0.0000 
     41 CA          5.6435   31.1495   28.0083 C.3       2 GLC5        0.0000 
     42 CA          5.8090   31.9140   26.1090 C.3       4 GLP5        0.0000 
     43 CA          5.5120   32.4780   29.7912 C.3       2 GLC5        0.0000 
     44 CA          8.6935   30.0072   29.6272 C.3       2 GLC5        0.0000 
     45 CA          6.9490   31.1350   30.7200 C.3       6 GLL5        0.0000 
     46 CA          9.7740   28.8130   28.6120 C.3       4 GLP5        0.0000 
     47 CA          8.9864   30.9739   31.7508 C.3       2 GLC5        0.0000 
     48 CA         10.5080   30.5960   32.5850 C.3       4 GLP5        0.0000 
     49 CA          6.5054   32.9614   30.2957 C.3       2 GLC5        0.0000 
     50 CA          1.9270   31.9073   28.8595 C.3       2 GLC5        0.0000 
     51 CA          2.3570   33.1390   30.4880 C.3       6 GLL5        0.0000 
     52 CA          3.7575   34.1380   30.0352 C.3       2 GLC5        0.0000 
     53 CA          2.5945   34.3909   31.8780 C.3       2 GLC5        0.0000 
     54 CA         -2.9360   35.2013   31.6045 C.3       2 GLC5        0.0000 
     55 CA         -1.6250   33.3650   31.8760 C.3       6 GLL5        0.0000 
     56 CA         -3.7060   37.2490   31.7210 C.3       4 GLP5        0.0000 
     57 CA         -3.9055   35.2600   31.9880 C.3       2 GLC5        0.0000 
     58 CA         -3.9990   33.0260   31.6120 C.3       6 GLL5        0.0000 
     59 CA         -5.0770   34.2165   31.0145 C.3       2 GLC5        0.0000 
     60 CA         -4.2110   33.5160   32.8980 C.3       6 GLL5        0.0000 
     61 CA         -6.3720   35.1830   29.9020 C.3       4 GLP5        0.0000 
     62 CA         -1.7297   33.9390   35.0198 C.3       2 GLC5        0.0000 
     63 CA         -3.1300   33.9380   33.6760 C.3       6 GLL5        0.0000 
     64 CA         -0.9750   33.9790   36.6220 C.3       4 GLP5        0.0000 
     65 CA         -3.0953   35.5740   32.5692 C.3       2 GLC5        0.0000 
@<TRIPOS>BOND
@<TRIPOS>SUBSTRUCTURE
     1 SEC2       15 GROUP        1 X    SEC  0     ROOT SEC X 2
     2 GLC5        1 GROUP        1 X    GLC  0     **** GLC X 6
     3 SEP2       17 GROUP        1 Y    SEP  0     ROOT SEP Y 9
     4 GLP5        3 GROUP        1 Y    GLP  0     **** GLP Y 13
     5 SEL2       16 GROUP        1 Z    SEL  0     ROOT SEL Z 16
     6 GLL5        2 GROUP        1 Z    GLL  0     **** GLL Z 20
@<TRIPOS>SET

