#    Name: 3hrb_I39_1_ligand
#    Modification time : Tue Mar 25 14:53:16 2014

@<TRIPOS>MOLECULE
3hrb_I39_1_ligand
   39    41     1     0     0
SMALL
NO_CHARGES


@<TRIPOS>ATOM
      1 O10         2.2140   29.7770   31.6700 O.2       1 I391        0.0000 
      2 C9          2.7160   30.8430   31.3370 C.2       1 I391        0.0000 
      3 C4          4.1970   30.9400   31.1040 C.ar      1 I391        0.0000 
      4 C3          4.9840   31.6400   32.0030 C.ar      1 I391        0.0000 
      5 F8          4.4390   32.2310   33.0770 F         1 I391        0.0000 
      6 C2          6.3560   31.7360   31.8160 C.ar      1 I391        0.0000 
      7 C5          4.7900   30.3370   30.0050 C.ar      1 I391        0.0000 
      8 C6          6.1660   30.4330   29.8100 C.ar      1 I391        0.0000 
      9 C1          6.9490   31.1350   30.7200 C.ar      1 I391        0.0000 
     10 F7          8.2770   31.2680   30.5650 F         1 I391        0.0000 
     11 C11         1.8410   32.0540   31.1620 C.ar      1 I391        0.0000 
     12 C16         2.3570   33.1390   30.4880 C.ar      1 I391        0.0000 
     13 C15         1.5810   34.2710   30.3030 C.ar      1 I391        0.0000 
     14 N14         0.3430   34.3180   30.7390 N.pl3     1 I391        0.0000 
     15 O23        -0.3950   35.5130   30.4990 O.2       1 I391        0.0000 
     16 C13        -0.2170   33.2800   31.3820 C.ar      1 I391        0.0000 
     17 C12         0.5170   32.1250   31.6190 C.ar      1 I391        0.0000 
     18 N24        -0.0600   31.0810   32.2760 N.pl3     1 I391        0.0000 
     19 C17        -1.6250   33.3650   31.8760 C.ar      1 I391        0.0000 
     20 C22        -2.7070   32.9420   31.1000 C.ar      1 I391        0.0000 
     21 C25        -2.5250   32.3920   29.7060 C.3       1 I391        0.0000 
     22 C21        -3.9990   33.0260   31.6120 C.ar      1 I391        0.0000 
     23 C20        -4.2110   33.5160   32.8980 C.ar      1 I391        0.0000 
     24 C19        -3.1300   33.9380   33.6760 C.ar      1 I391        0.0000 
     25 C18        -1.8390   33.8600   33.1590 C.ar      1 I391        0.0000 
     26 H           6.9311   32.2553   32.4946 H         1 I391        0.0000 
     27 H           4.2135   29.8157   29.3290 H         1 I391        0.0000 
     28 H           6.6011   29.9851   28.9940 H         1 I391        0.0000 
     29 H           3.3199   33.1115   30.1203 H         1 I391        0.0000 
     30 H           2.0164   35.0844   29.8047 H         1 I391        0.0000 
     31 H           0.5255   30.2873   32.4409 H         1 I391        0.0000 
     32 H          -1.0183   31.2001   32.5356 H         1 I391        0.0000 
     33 H          -4.7987   32.7254   31.0391 H         1 I391        0.0000 
     34 H          -5.1649   33.5682   33.2780 H         1 I391        0.0000 
     35 H          -3.2877   34.3019   34.6199 H         1 I391        0.0000 
     36 H          -1.0395   34.1702   33.7292 H         1 I391        0.0000 
     37 H          -2.0960   33.0589   29.0967 H         1 I391        0.0000 
     38 H          -1.9468   31.5761   29.7012 H         1 I391        0.0000 
     39 H          -3.3979   32.1351   29.2912 H         1 I391        0.0000 
@<TRIPOS>BOND
     1    2    1 2    
     2    3    2 1    
     3   11    2 1    
     4    4    3 ar   
     5    7    3 ar   
     6    5    4 1    
     7    6    4 ar   
     8    9    6 ar   
     9   26    6 1    
    10    8    7 ar   
    11   27    7 1    
    12    9    8 ar   
    13   28    8 1    
    14   10    9 1    
    15   12   11 ar   
    16   17   11 ar   
    17   13   12 ar   
    18   29   12 1    
    19   14   13 ar   
    20   30   13 1    
    21   15   14 1    
    22   16   14 ar   
    23   17   16 ar   
    24   19   16 1    
    25   18   17 1    
    26   31   18 1    
    27   32   18 1    
    28   20   19 ar   
    29   25   19 ar   
    30   21   20 1    
    31   22   20 ar   
    32   37   21 1    
    33   38   21 1    
    34   39   21 1    
    35   23   22 ar   
    36   33   22 1    
    37   24   23 ar   
    38   34   23 1    
    39   25   24 ar   
    40   35   24 1    
    41   36   25 1    
@<TRIPOS>SUBSTRUCTURE
     1 I391        1 GROUP   
@<TRIPOS>SET

