#    Name: 4jsc_1OY_2_INTS_M
#    Modification time : Tue Mar 25 06:15:40 2014

@<TRIPOS>MOLECULE
4jsc_1OY_2_INTS_M
   72     0     6     0     0
SMALL
NO_CHARGES


@<TRIPOS>ATOM
      1 CA         -8.5915  -23.3335  -13.0650 C.3       2 GLC5        0.0000 
      2 CA         -7.5550  -24.2410  -14.4220 C.3       6 GLL5        0.0000 
      3 CA         -9.6280  -22.4260  -11.7080 C.3       4 GLP5        0.0000 
      4 CA         -9.6175  -24.5680  -14.3560 C.3       2 GLC5        0.0000 
      5 CA        -11.6800  -24.8950  -14.2900 C.3       4 GLP5        0.0000 
      6 N          -8.6915  -21.7135  -17.0795 N.am      1 SEC2        0.0000 
      7 N          -7.7230  -22.2660  -16.3750 N.am      5 SEL2        0.0000 
      8 N          -9.6600  -21.1610  -17.7840 N.am      3 SEP2        0.0000 
      9 CA        -10.4670  -17.7840  -15.7235 C.3       2 GLC5        0.0000 
     10 CA         -9.0160  -18.1740  -16.5220 C.3       6 GLL5        0.0000 
     11 CA        -11.9180  -17.3940  -14.9250 C.3       4 GLP5        0.0000 
     12 CA         -8.6325  -15.4825  -19.0745 C.3       2 GLC5        0.0000 
     13 CA         -9.7110  -17.1960  -19.1230 C.3       6 GLL5        0.0000 
     14 CA         -7.5540  -13.7690  -19.0260 C.3       4 GLP5        0.0000 
     15 CA        -10.4445  -18.7615  -19.1300 C.3       2 GLC5        0.0000 
     16 CA        -11.1780  -20.3270  -19.1370 C.3       4 GLP5        0.0000 
     17 CA        -10.4800  -15.9275  -17.7165 C.3       2 GLC5        0.0000 
     18 CA        -11.2490  -14.6590  -16.3100 C.3       4 GLP5        0.0000 
     19 CA        -10.1050  -16.5350  -20.6840 C.3       2 GLC5        0.0000 
     20 CA        -10.4990  -15.8740  -22.2450 C.3       4 GLP5        0.0000 
     21 CA         -9.2370  -19.3795  -19.3980 C.3       2 GLC5        0.0000 
     22 CA         -7.2960  -18.4320  -19.6590 C.3       6 GLL5        0.0000 
     23 CA        -10.2900  -17.2880  -12.6965 C.3       2 GLC5        0.0000 
     24 CA         -8.7470  -18.4200  -13.8050 C.3       6 GLL5        0.0000 
     25 CA        -11.8330  -16.1560  -11.5880 C.3       4 GLP5        0.0000 
     26 CA         -5.7845  -13.9480  -15.9255 C.3       2 GLC5        0.0000 
     27 CA         -6.7530  -14.8630  -14.1980 C.3       6 GLL5        0.0000 
     28 CA         -4.8160  -13.0330  -17.6530 C.3       4 GLP5        0.0000 
     29 CA         -7.3900  -12.2455  -13.6485 C.3       2 GLC5        0.0000 
     30 CA         -8.9910  -13.4200  -13.5960 C.3       6 GLL5        0.0000 
     31 CA         -5.7890  -11.0710  -13.7010 C.3       4 GLP5        0.0000 
     32 CA         -8.1760  -14.0175  -11.7565 C.3       2 GLC5        0.0000 
     33 CA         -7.3610  -14.6150   -9.9170 C.3       4 GLP5        0.0000 
     34 CA        -10.3675  -12.2760  -13.2405 C.3       2 GLC5        0.0000 
     35 CA        -11.7440  -11.1320  -12.8850 C.3       4 GLP5        0.0000 
     36 CA        -10.2715  -14.2140  -12.2225 C.3       2 GLC5        0.0000 
     37 CA        -11.5520  -15.0080  -10.8490 C.3       4 GLP5        0.0000 
     38 CA         -7.7010  -20.1550  -12.7300 C.3       2 GLC5        0.0000 
     39 CA         -5.7400  -19.3650  -13.4430 C.3       6 GLL5        0.0000 
     40 CA         -9.6620  -20.9450  -12.0170 C.3       4 GLP5        0.0000 
     41 CA         -3.9450  -16.6870  -12.4290 C.3       2 GLC5        0.0000 
     42 CA         -4.5620  -18.7820  -12.6710 C.3       6 GLL5        0.0000 
     43 CA         -3.3280  -14.5920  -12.1870 C.3       4 GLP5        0.0000 
     44 CA         -6.1325  -21.6045   -9.6115 C.3       2 GLC5        0.0000 
     45 CA         -5.2910  -20.4930  -10.9850 C.3       6 GLL5        0.0000 
     46 CA         -6.9740  -22.7160   -8.2380 C.3       4 GLP5        0.0000 
     47 CA         -7.3285  -20.3100  -10.8775 C.3       2 GLC5        0.0000 
     48 CA         -9.3660  -20.1270  -10.7700 C.3       4 GLP5        0.0000 
     49 CA         -4.4515  -16.3290  -11.3480 C.3       2 GLC5        0.0000 
     50 CA         -5.5750  -18.0660  -10.5090 C.3       6 GLL5        0.0000 
     51 CA         -5.7760  -16.8835   -9.0190 C.3       2 GLC5        0.0000 
     52 CA         -5.9770  -15.7010   -7.5290 C.3       4 GLP5        0.0000 
     53 CA         -7.4705  -19.0965  -10.6395 C.3       2 GLC5        0.0000 
     54 CA         -2.2495  -18.4195   -9.1060 C.3       2 GLC5        0.0000 
     55 CA         -3.2880  -19.0850  -10.5510 C.3       6 GLL5        0.0000 
     56 CA         -1.2110  -17.7540   -7.6610 C.3       4 GLP5        0.0000 
     57 CA         -9.1189  -26.7965  -13.7177 C.3       2 GLC5        0.0000 
     58 CA         -7.8390  -27.2490  -14.7980 C.3       6 GLL5        0.0000 
     59 CA        -10.7640  -27.0070  -13.2540 C.3       4 GLP5        0.0000 
     60 CA         -6.8771  -16.8963  -19.7734 C.3       2 GLC5        0.0000 
     61 CA         -8.2570  -18.1010  -18.7030 C.3       6 GLL5        0.0000 
     62 CA         -6.2650  -15.3520  -20.4670 C.3       4 GLP5        0.0000 
     63 CA         -9.5419  -19.3649  -17.8052 C.3       2 GLC5        0.0000 
     64 CA        -10.8260  -20.4310  -17.8330 C.3       4 GLP5        0.0000 
     65 CA         -9.0415  -19.3912  -12.9557 C.3       2 GLC5        0.0000 
     66 CA        -10.2628  -17.1821  -14.3749 C.3       2 GLC5        0.0000 
     67 CA         -8.7940  -16.1030  -13.7550 C.3       6 GLL5        0.0000 
     68 CA         -4.8700  -15.0255  -13.2553 C.3       2 GLC5        0.0000 
     69 CA         -6.6120  -12.9763  -13.8663 C.3       2 GLC5        0.0000 
     70 CA         -7.4826  -14.8986  -11.9605 C.3       2 GLC5        0.0000 
     71 CA         -9.9015  -14.4095  -15.0202 C.3       2 GLC5        0.0000 
     72 CA         -8.1170  -14.9000  -13.8650 C.3       6 GLL5        0.0000 
@<TRIPOS>BOND
@<TRIPOS>SUBSTRUCTURE
     1 SEC2        6 GROUP        1 X    SEC  0     ROOT SEC X 2
     2 GLC5        1 GROUP        1 X    GLC  0     **** GLC X 6
     3 SEP2        8 GROUP        1 Y    SEP  0     ROOT SEP Y 9
     4 GLP5        3 GROUP        1 Y    GLP  0     **** GLP Y 13
     5 SEL2        7 GROUP        1 Z    SEL  0     ROOT SEL Z 16
     6 GLL5        2 GROUP        1 Z    GLL  0     **** GLL Z 20
@<TRIPOS>SET

