#    Name: 4jsc_1OY_2_ligand
#    Modification time : Tue Mar 25 06:15:41 2014

@<TRIPOS>MOLECULE
4jsc_1OY_2_ligand
   67    69     1     0     0
SMALL
NO_CHARGES


@<TRIPOS>ATOM
      1 C1         -6.0620  -20.8550  -15.3190 C.3       1 1OY201      0.0000 
      2 C10        -6.9510  -22.0590  -15.4290 C.2       1 1OY201      0.0000 
      3 N11        -6.8390  -22.9680  -14.4200 N.am      1 1OY201      0.0000 
      4 C12        -7.5550  -24.2410  -14.4220 C.3       1 1OY201      0.0000 
      5 C13        -6.7110  -25.2800  -13.6770 C.3       1 1OY201      0.0000 
      6 C14        -7.5060  -26.5660  -13.4530 C.3       1 1OY201      0.0000 
      7 O14        -6.7900  -27.4510  -12.5790 O.3       1 1OY201      0.0000 
      8 C15        -7.8390  -27.2490  -14.7980 C.3       1 1OY201      0.0000 
      9 O15        -6.6510  -27.6700  -15.4740 O.3       1 1OY201      0.0000 
     10 O10        -7.7230  -22.2660  -16.3750 O.2       1 1OY201      0.0000 
     11 N1         -5.4620  -20.7560  -13.9450 N.3       1 1OY201      0.0000 
     12 C2         -6.8210  -19.5510  -15.5200 C.3       1 1OY201      0.0000 
     13 C21        -6.9440  -19.1590  -16.9650 C.ar      1 1OY201      0.0000 
     14 C26        -5.9660  -19.4920  -17.9040 C.ar      1 1OY201      0.0000 
     15 C25        -6.1470  -19.1280  -19.2540 C.ar      1 1OY201      0.0000 
     16 C22        -8.0580  -18.4790  -17.3980 C.ar      1 1OY201      0.0000 
     17 F2         -9.0160  -18.1740  -16.5220 F         1 1OY201      0.0000 
     18 C23        -8.2570  -18.1010  -18.7030 C.ar      1 1OY201      0.0000 
     19 CL2        -9.7110  -17.1960  -19.1230 Cl        1 1OY201      0.0000 
     20 C24        -7.2960  -18.4320  -19.6590 C.ar      1 1OY201      0.0000 
     21 C3         -6.0260  -18.5610  -14.6780 C.3       1 1OY201      0.0000 
     22 C37        -4.7430  -18.2640  -15.3330 C.1       1 1OY201      0.0000 
     23 N37        -3.7400  -18.0440  -15.8390 N.1       1 1OY201      0.0000 
     24 C31        -6.7520  -17.2750  -14.3600 C.ar      1 1OY201      0.0000 
     25 C32        -8.0950  -17.2550  -13.9840 C.ar      1 1OY201      0.0000 
     26 F3         -8.7470  -18.4200  -13.8050 F         1 1OY201      0.0000 
     27 C33        -8.7940  -16.1030  -13.7550 C.ar      1 1OY201      0.0000 
     28 C36        -6.0710  -16.0550  -14.4490 C.ar      1 1OY201      0.0000 
     29 C35        -6.7530  -14.8630  -14.1980 C.ar      1 1OY201      0.0000 
     30 C34        -8.1170  -14.9000  -13.8650 C.ar      1 1OY201      0.0000 
     31 CL3        -8.9910  -13.4200  -13.5960 Cl        1 1OY201      0.0000 
     32 C4         -5.7400  -19.3650  -13.4430 C.3       1 1OY201      0.0000 
     33 C41        -4.5620  -18.7820  -12.6710 C.3       1 1OY201      0.0000 
     34 C42        -4.6790  -19.1080  -11.1810 C.3       1 1OY201      0.0000 
     35 C45        -5.2910  -20.4930  -10.9850 C.3       1 1OY201      0.0000 
     36 C44        -5.5750  -18.0660  -10.5090 C.3       1 1OY201      0.0000 
     37 C43        -3.2880  -19.0850  -10.5510 C.3       1 1OY201      0.0000 
     38 H          -5.2685  -20.9009  -16.0376 H         1 1OY201      0.0000 
     39 H          -6.2285  -22.7858  -13.5962 H         1 1OY201      0.0000 
     40 H          -7.7186  -24.5979  -15.4359 H         1 1OY201      0.0000 
     41 H          -8.5132  -24.1534  -13.9157 H         1 1OY201      0.0000 
     42 H          -6.4087  -24.8715  -12.7148 H         1 1OY201      0.0000 
     43 H          -5.8215  -25.5041  -14.2623 H         1 1OY201      0.0000 
     44 H          -8.4631  -26.2781  -12.9966 H         1 1OY201      0.0000 
     45 H          -8.4159  -26.5274  -15.3960 H         1 1OY201      0.0000 
     46 H          -8.5059  -28.0962  -14.5771 H         1 1OY201      0.0000 
     47 H          -7.7906  -19.6661  -15.0619 H         1 1OY201      0.0000 
     48 H          -5.1241  -19.9951  -17.6215 H         1 1OY201      0.0000 
     49 H          -5.4289  -19.3762  -19.9457 H         1 1OY201      0.0000 
     50 H          -7.4232  -18.1742  -20.6355 H         1 1OY201      0.0000 
     51 H          -9.7832  -16.1199  -13.5103 H         1 1OY201      0.0000 
     52 H          -5.0782  -16.0390  -14.6970 H         1 1OY201      0.0000 
     53 H          -6.2656  -13.9660  -14.2553 H         1 1OY201      0.0000 
     54 H          -6.6141  -19.3813  -12.8294 H         1 1OY201      0.0000 
     55 H          -4.5444  -17.7017  -12.8002 H         1 1OY201      0.0000 
     56 H          -3.6345  -19.2005  -13.0567 H         1 1OY201      0.0000 
     57 H          -4.7382  -21.2074  -11.4140 H         1 1OY201      0.0000 
     58 H          -5.3743  -20.7286  -10.0167 H         1 1OY201      0.0000 
     59 H          -6.2071  -20.5537  -11.3813 H         1 1OY201      0.0000 
     60 H          -5.6801  -18.2423   -9.5303 H         1 1OY201      0.0000 
     61 H          -5.2044  -17.1419  -10.6022 H         1 1OY201      0.0000 
     62 H          -6.4932  -18.0549  -10.9050 H         1 1OY201      0.0000 
     63 H          -2.6775  -19.7544  -10.9743 H         1 1OY201      0.0000 
     64 H          -2.8522  -18.1899  -10.6455 H         1 1OY201      0.0000 
     65 H          -3.3195  -19.2939   -9.5736 H         1 1OY201      0.0000 
     66 H          -5.8543  -27.4617  -12.9316 H         1 1OY201      0.0000 
     67 H          -5.9179  -27.1181  -15.0766 H         1 1OY201      0.0000 
@<TRIPOS>BOND
     1    2    1 1    
     2   11    1 1    
     3   12    1 1    
     4   38    1 1    
     5    3    2 am   
     6   10    2 2    
     7    4    3 1    
     8   39    3 1    
     9    5    4 1    
    10   40    4 1    
    11   41    4 1    
    12    6    5 1    
    13   42    5 1    
    14   43    5 1    
    15    7    6 1    
    16    8    6 1    
    17   44    6 1    
    18   66    7 1    
    19    9    8 1    
    20   45    8 1    
    21   46    8 1    
    22   67    9 1    
    23   32   11 1    
    24   13   12 1    
    25   21   12 1    
    26   47   12 1    
    27   14   13 ar   
    28   16   13 ar   
    29   15   14 ar   
    30   48   14 1    
    31   20   15 ar   
    32   49   15 1    
    33   17   16 1    
    34   18   16 ar   
    35   19   18 1    
    36   20   18 ar   
    37   50   20 1    
    38   22   21 1    
    39   24   21 1    
    40   32   21 1    
    41   23   22 3    
    42   25   24 ar   
    43   28   24 ar   
    44   26   25 1    
    45   27   25 ar   
    46   30   27 ar   
    47   51   27 1    
    48   29   28 ar   
    49   52   28 1    
    50   30   29 ar   
    51   53   29 1    
    52   31   30 1    
    53   33   32 1    
    54   54   32 1    
    55   34   33 1    
    56   55   33 1    
    57   56   33 1    
    58   35   34 1    
    59   36   34 1    
    60   37   34 1    
    61   57   35 1    
    62   58   35 1    
    63   59   35 1    
    64   60   36 1    
    65   61   36 1    
    66   62   36 1    
    67   63   37 1    
    68   64   37 1    
    69   65   37 1    
@<TRIPOS>SUBSTRUCTURE
     1 1OY201      1 GROUP   
@<TRIPOS>SET

