#    Name: 3t7o_UPG_2_INTS_M
#    Modification time : Mon Mar 24 19:16:57 2014

@<TRIPOS>MOLECULE
3t7o_UPG_2_INTS_M
  109     0    15     0     0
SMALL
NO_CHARGES


@<TRIPOS>ATOM
      1 O          21.4540    4.2090   56.7465 O.2       1 ALC1        0.0000 
      2 O          22.3060    4.9000   55.9240 O.2      11 ALL1        0.0000 
      3 O          20.6020    3.5180   57.5690 O.2       6 ALP1        0.0000 
      4 CA         21.2275    3.9695   53.6920 C.3       5 GLC5        0.0000 
      5 CA         22.9710    4.9820   53.6340 C.3      15 GLL5        0.0000 
      6 CA         19.4840    2.9570   53.7500 C.3      10 GLP5        0.0000 
      7 N          21.1750    6.2750   58.2070 N.am      2 SEC2        0.0000 
      8 N          21.5960    6.7780   56.9290 N.am     12 SEL2        0.0000 
      9 N          20.7540    5.7720   59.4850 N.am      7 SEP2        0.0000 
     10 CA         20.1105    8.7795   55.2460 C.3       5 GLC5        0.0000 
     11 CA         21.8800    8.3780   54.7140 C.3      15 GLL5        0.0000 
     12 CA         18.3410    9.1810   55.7780 C.3      10 GLP5        0.0000 
     13 N          23.6540   11.5950   55.7860 N.am      2 SEC2        0.0000 
     14 N          22.4700   10.4870   55.6550 N.am     12 SEL2        0.0000 
     15 N          24.8380   12.7030   55.9170 N.am      7 SEP2        0.0000 
     16 O          22.2065   10.3520   56.9840 O.2       1 ALC1        0.0000 
     17 O          22.4700   10.4870   55.6550 O.2      11 ALL1        0.0000 
     18 O          21.9430   10.2170   58.3130 O.2       6 ALP1        0.0000 
     19 CA         24.9370    8.3250   54.2490 C.3       5 GLC5        0.0000 
     20 CA         23.7250    9.5480   53.8610 C.3      15 GLL5        0.0000 
     21 CA         26.1490    7.1020   54.6370 C.3      10 GLP5        0.0000 
     22 N          24.7215   11.6875   54.9325 N.am      2 SEC2        0.0000 
     23 N          24.6050   10.6720   53.9480 N.am     12 SEL2        0.0000 
     24 O          25.7640   11.3580   53.1790 O.2       1 ALC1        0.0000 
     25 O          24.6050   10.6720   53.9480 O.2      11 ALL1        0.0000 
     26 O          26.9230   12.0440   52.4100 O.2       6 ALP1        0.0000 
     27 NZ         27.3485    9.2400   50.8745 N.4       3 LYC4        0.0000 
     28 NZ         25.8080    9.9660   51.2770 N.4      13 LYL4        0.0000 
     29 NZ         28.8890    8.5140   50.4720 N.4       8 LYP4        0.0000 
     30 Zn         26.0255   10.8685   50.9175 Zn        4 ZIC7        0.0000 
     31 Zn         25.8080    9.9660   51.2770 Zn       14 ZIL7        0.0000 
     32 Zn         26.2430   11.7710   50.5580 Zn        9 ZIP7        0.0000 
     33 N          27.3485    9.2400   50.8745 N.am      2 SEC2        0.0000 
     34 N          25.8080    9.9660   51.2770 N.am     12 SEL2        0.0000 
     35 N          28.8890    8.5140   50.4720 N.am      7 SEP2        0.0000 
     36 NZ         27.3825    7.9460   50.7410 N.4       3 LYC4        0.0000 
     37 NZ         25.8760    7.3780   51.0100 N.4      13 LYL4        0.0000 
     38 N          26.1555    6.4625   51.9425 N.am      2 SEC2        0.0000 
     39 N          25.8760    7.3780   51.0100 N.am     12 SEL2        0.0000 
     40 N          26.4350    5.5470   52.8750 N.am      7 SEP2        0.0000 
     41 N          26.4390    6.4605   49.8715 N.am      2 SEC2        0.0000 
     42 N          27.0020    5.5430   48.7330 N.am      7 SEP2        0.0000 
     43 N          27.3825    7.9460   50.7410 N.am      2 SEC2        0.0000 
     44 Zn         26.2130   11.4085   49.6410 Zn        4 ZIC7        0.0000 
     45 Zn         26.1830   11.0460   48.7240 Zn       14 ZIL7        0.0000 
     46 NZ         27.3480    7.6015   47.5115 N.4       3 LYC4        0.0000 
     47 NZ         27.2400    8.7590   48.3460 N.4      13 LYL4        0.0000 
     48 NZ         27.1790    5.3850   47.4220 N.4       8 LYP4        0.0000 
     49 NZ         28.0645    8.6365   49.4090 N.4       3 LYC4        0.0000 
     50 N          27.1210    7.1510   48.5395 N.am      2 SEC2        0.0000 
     51 N          27.2400    8.7590   48.3460 N.am     12 SEL2        0.0000 
     52 N          27.3480    7.6015   47.5115 N.am      2 SEC2        0.0000 
     53 N          27.4560    6.4440   46.6770 N.am      7 SEP2        0.0000 
     54 N          28.6520    8.8420   47.8925 N.am      2 SEC2        0.0000 
     55 N          30.0640    8.9250   47.4390 N.am      7 SEP2        0.0000 
     56 N          28.0645    8.6365   49.4090 N.am      2 SEC2        0.0000 
     57 CA         23.9040    7.7555   46.8155 C.3       5 GLC5        0.0000 
     58 CA         24.1070    9.8930   46.1890 C.3      15 GLL5        0.0000 
     59 CA         23.7010    5.6180   47.4420 C.3      10 GLP5        0.0000 
     60 CA         22.7105    7.4015   47.1085 C.3       5 GLC5        0.0000 
     61 CA         21.7200    9.1850   46.7750 C.3      15 GLL5        0.0000 
     62 CA         21.5755    7.2745   44.3850 C.3       5 GLC5        0.0000 
     63 CA         21.0010    8.9540   45.4340 C.3      15 GLL5        0.0000 
     64 CA         22.1500    5.5950   43.3360 C.3      10 GLP5        0.0000 
     65 CA         20.1345   10.3620   44.8510 C.3       5 GLC5        0.0000 
     66 CA         19.2680   11.7700   44.2680 C.3      10 GLP5        0.0000 
     67 N          24.9090   13.5180   45.7250 N.am      2 SEC2        0.0000 
     68 N          24.7910   12.2890   46.5610 N.am     12 SEL2        0.0000 
     69 N          25.0270   14.7470   44.8890 N.am      7 SEP2        0.0000 
     70 N          23.6130   12.5640   49.5735 N.am      2 SEC2        0.0000 
     71 N          22.7930   12.6310   48.3040 N.am     12 SEL2        0.0000 
     72 N          24.4330   12.4970   50.8430 N.am      7 SEP2        0.0000 
     73 O          21.3675   12.9680   47.7045 O.2       1 ALC1        0.0000 
     74 O          22.7930   12.6310   48.3040 O.2      11 ALL1        0.0000 
     75 O          19.9420   13.3050   47.1050 O.2       6 ALP1        0.0000 
     76 N          20.5090   11.5360   49.6975 N.am      2 SEC2        0.0000 
     77 N          20.9800   10.2560   48.6830 N.am     12 SEL2        0.0000 
     78 N          20.0380   12.8160   50.7120 N.am      7 SEP2        0.0000 
     79 O          19.8565   10.1065   48.8000 O.2       1 ALC1        0.0000 
     80 O          20.9800   10.2560   48.6830 O.2      11 ALL1        0.0000 
     81 O          18.7330    9.9570   48.9170 O.2       6 ALP1        0.0000 
     82 O          19.5665   11.1695   48.6875 O.2       1 ALC1        0.0000 
     83 O          18.1530   12.0830   48.6920 O.2       6 ALP1        0.0000 
     84 N          18.5485    9.6655   45.5950 N.am      2 SEC2        0.0000 
     85 N          19.6020    8.6200   45.5320 N.am     12 SEL2        0.0000 
     86 N          17.4950   10.7110   45.6580 N.am      7 SEP2        0.0000 
     87 O          18.6005    8.1340   44.2420 O.2       1 ALC1        0.0000 
     88 O          19.6020    8.6200   45.5320 O.2      11 ALL1        0.0000 
     89 O          17.5990    7.6480   42.9520 O.2       6 ALP1        0.0000 
     90 O          19.5355    8.6505   43.9960 O.2       1 ALC1        0.0000 
     91 O          19.4690    8.6810   42.4600 O.2       6 ALP1        0.0000 
     92 CA         24.5227    5.7302   53.9112 C.3       5 GLC5        0.0000 
     93 CA         22.6880    6.3410   53.6010 C.3      15 GLL5        0.0000 
     94 CA         26.2160    5.7990   54.2050 C.3      10 GLP5        0.0000 
     95 CA         23.2048    5.2097   51.7157 C.3       5 GLC5        0.0000 
     96 CA         23.5800    4.7580   49.8140 C.3      10 GLP5        0.0000 
     97 CA         21.5648    6.2088   52.1298 C.3       5 GLC5        0.0000 
     98 CA         20.3000    6.7560   50.6420 C.3      10 GLP5        0.0000 
     99 CA         24.1788    8.1002   55.4560 C.3       5 GLC5        0.0000 
    100 CA         25.9120    7.3780   55.9750 C.3      10 GLP5        0.0000 
    101 CA         24.3205   10.2203   56.0987 C.3       5 GLC5        0.0000 
    102 CA         23.0110    9.2670   55.1600 C.3      15 GLL5        0.0000 
    103 CA         25.2730   11.0330   57.6870 C.3      10 GLP5        0.0000 
    104 CA         23.8818   11.6623   53.1487 C.3       5 GLC5        0.0000 
    105 CA         24.6440   13.6740   52.8970 C.3      10 GLP5        0.0000 
    106 CA         21.4525    8.1833   51.4188 C.3       5 GLC5        0.0000 
    107 CA         22.5140    9.7530   52.9400 C.3      15 GLL5        0.0000 
    108 CA         20.4530   10.8210   45.6900 C.3       5 GLC5        0.0000 
    109 CA         21.5560   10.5590   47.4490 C.3      15 GLL5        0.0000 
@<TRIPOS>BOND
@<TRIPOS>SUBSTRUCTURE
     1 ALC1        1 GROUP        1 X    ALC  0     ROOT ALC X 1
     2 SEC2        7 GROUP        1 X    SEC  0     **** SEC X 2
     3 LYC4       27 GROUP        1 X    LYC  0     **** LYC X 4
     4 ZIC7       30 GROUP        1 X    ZIC  0     **** ZIC X 5
     5 GLC5        4 GROUP        1 X    GLC  0     **** GLC X 6
     6 ALP1        3 GROUP        1 Y    ALP  0     ROOT ALP Y 8
     7 SEP2        9 GROUP        1 Y    SEP  0     **** SEP Y 9
     8 LYP4       29 GROUP        1 Y    LYP  0     **** LYP Y 11
     9 ZIP7       32 GROUP        1 Y    ZIP  0     **** ZIP Y 12
    10 GLP5        6 GROUP        1 Y    GLP  0     **** GLP Y 13
    11 ALL1        2 GROUP        1 Z    ALL  0     ROOT ALL Z 15
    12 SEL2        8 GROUP        1 Z    SEL  0     **** SEL Z 16
    13 LYL4       28 GROUP        1 Z    LYL  0     **** LYL Z 18
    14 ZIL7       31 GROUP        1 Z    ZIL  0     **** ZIL Z 19
    15 GLL5        5 GROUP        1 Z    GLL  0     **** GLL Z 20
@<TRIPOS>SET

