#    Name: 3t7o_UPG_2_ligand
#    Modification time : Mon Mar 24 19:16:57 2014

@<TRIPOS>MOLECULE
3t7o_UPG_2_ligand
   58    60     1     0     0
SMALL
NO_CHARGES


@<TRIPOS>ATOM
      1 N1         22.2310    6.9460   54.6990 N.am      1 UPG264      0.0000 
      2 C2         22.0200    6.2050   55.8890 C.2       1 UPG264      0.0000 
      3 N3         22.3060    4.9000   55.9240 N.am      1 UPG264      0.0000 
      4 C4         22.7810    4.2820   54.8220 C.2       1 UPG264      0.0000 
      5 C5         22.9710    4.9820   53.6340 C.2       1 UPG264      0.0000 
      6 C6         22.6880    6.3410   53.6010 C.2       1 UPG264      0.0000 
      7 O2         21.5960    6.7780   56.9290 O.2       1 UPG264      0.0000 
      8 O4         23.0400    3.0680   54.8550 O.2       1 UPG264      0.0000 
      9 C1C        21.8800    8.3780   54.7140 C.3       1 UPG264      0.0000 
     10 C2C        23.0110    9.2670   55.1600 C.3       1 UPG264      0.0000 
     11 O2C        22.4700   10.4870   55.6550 O.3       1 UPG264      0.0000 
     12 C3C        23.7250    9.5480   53.8610 C.3       1 UPG264      0.0000 
     13 C4C        22.5140    9.7530   52.9400 C.3       1 UPG264      0.0000 
     14 O4C        21.5440    8.8390   53.4160 O.3       1 UPG264      0.0000 
     15 O3C        24.6050   10.6720   53.9480 O.3       1 UPG264      0.0000 
     16 C5C        22.6960    9.4680   51.4510 C.3       1 UPG264      0.0000 
     17 O5C        23.6300    8.4100   51.2640 O.3       1 UPG264      0.0000 
     18 PA         25.1450    8.6700   50.7280 P.3       1 UPG264      0.0000 
     19 O1A        25.8080    9.9660   51.2770 O.co2     1 UPG264      0.0000 
     20 O2A        25.8760    7.3780   51.0100 O.co2     1 UPG264      0.0000 
     21 O3A        24.9050    8.8420   49.1620 O.3       1 UPG264      0.0000 
     22 PB         25.9960    9.6050   48.2260 P.3       1 UPG264      0.0000 
     23 O1B        26.1830   11.0460   48.7240 O.co2     1 UPG264      0.0000 
     24 O2B        27.2400    8.7590   48.3460 O.co2     1 UPG264      0.0000 
     25 O3B        25.3870    9.4850   46.7650 O.3       1 UPG264      0.0000 
     26 C1'        24.1070    9.8930   46.1890 C.3       1 UPG264      0.0000 
     27 C2'        23.6840   11.3470   46.4680 C.3       1 UPG264      0.0000 
     28 C3'        22.8830   11.3030   47.7550 C.3       1 UPG264      0.0000 
     29 C4'        21.5560   10.5590   47.4490 C.3       1 UPG264      0.0000 
     30 C5'        21.7200    9.1850   46.7750 C.3       1 UPG264      0.0000 
     31 C6'        21.0010    8.9540   45.4340 C.3       1 UPG264      0.0000 
     32 O2'        24.7910   12.2890   46.5610 O.3       1 UPG264      0.0000 
     33 O3'        22.7930   12.6310   48.3040 O.3       1 UPG264      0.0000 
     34 O4'        20.9800   10.2560   48.6830 O.3       1 UPG264      0.0000 
     35 O5'        23.1080    8.9020   46.5540 O.3       1 UPG264      0.0000 
     36 O6'        19.6020    8.6200   45.5320 O.3       1 UPG264      0.0000 
     37 H          22.1639    4.3524   56.8021 H         1 UPG264      0.0000 
     38 H          23.3134    4.5019   52.8001 H         1 UPG264      0.0000 
     39 H          22.8389    6.8600   52.7177 H         1 UPG264      0.0000 
     40 H          21.0447    8.5507   55.3895 H         1 UPG264      0.0000 
     41 H          23.6315    8.7625   55.8067 H         1 UPG264      0.0000 
     42 H          24.1997    8.6384   53.5557 H         1 UPG264      0.0000 
     43 H          22.1496   10.7612   53.0706 H         1 UPG264      0.0000 
     44 H          23.0314   10.3981   50.9722 H         1 UPG264      0.0000 
     45 H          21.7095    9.2198   51.0361 H         1 UPG264      0.0000 
     46 H          24.2272    9.8207   45.0586 H         1 UPG264      0.0000 
     47 H          22.9900   11.6330   45.6739 H         1 UPG264      0.0000 
     48 H          23.4608   10.6427   48.4366 H         1 UPG264      0.0000 
     49 H          20.9290   11.1695   46.8606 H         1 UPG264      0.0000 
     50 H          21.3282    8.4185   47.4805 H         1 UPG264      0.0000 
     51 H          21.5646    8.1549   44.8929 H         1 UPG264      0.0000 
     52 H          21.1486    9.8758   44.8195 H         1 UPG264      0.0000 
     53 H          22.7526   10.5252   56.6135 H         1 UPG264      0.0000 
     54 H          25.1567   10.6337   53.1148 H         1 UPG264      0.0000 
     55 H          25.0355   12.3059   47.5305 H         1 UPG264      0.0000 
     56 H          21.9076   12.9788   47.9958 H         1 UPG264      0.0000 
     57 H          20.0757   10.6822   48.6580 H         1 UPG264      0.0000 
     58 H          19.2858    8.5503   44.5859 H         1 UPG264      0.0000 
@<TRIPOS>BOND
     1    2    1 1    
     2    6    1 1    
     3    9    1 1    
     4    3    2 1    
     5    7    2 2    
     6    4    3 1    
     7   37    3 1    
     8    5    4 1    
     9    8    4 2    
    10    6    5 2    
    11   38    5 1    
    12   39    6 1    
    13   10    9 1    
    14   14    9 1    
    15   40    9 1    
    16   11   10 1    
    17   12   10 1    
    18   41   10 1    
    19   53   11 1    
    20   13   12 1    
    21   15   12 1    
    22   42   12 1    
    23   14   13 1    
    24   16   13 1    
    25   43   13 1    
    26   54   15 1    
    27   17   16 1    
    28   44   16 1    
    29   45   16 1    
    30   18   17 1    
    31   19   18 ar   
    32   20   18 ar   
    33   21   18 1    
    34   22   21 1    
    35   23   22 ar   
    36   24   22 ar   
    37   25   22 1    
    38   26   25 1    
    39   27   26 1    
    40   35   26 1    
    41   46   26 1    
    42   28   27 1    
    43   32   27 1    
    44   47   27 1    
    45   29   28 1    
    46   33   28 1    
    47   48   28 1    
    48   30   29 1    
    49   34   29 1    
    50   49   29 1    
    51   31   30 1    
    52   35   30 1    
    53   50   30 1    
    54   36   31 1    
    55   51   31 1    
    56   52   31 1    
    57   55   32 1    
    58   56   33 1    
    59   57   34 1    
    60   58   36 1    
@<TRIPOS>SUBSTRUCTURE
     1 UPG264      1 GROUP   
@<TRIPOS>SET

