#    Name: 1zrz_BI1_1_INTS_M
#    Modification time : Mon Mar 24 17:48:23 2014

@<TRIPOS>MOLECULE
1zrz_BI1_1_INTS_M
   55     0    12     0     0
SMALL
NO_CHARGES


@<TRIPOS>ATOM
      1 CA        -10.0500   25.6880   23.8065 C.3       4 GLC5        0.0000 
      2 CA        -11.2450   24.7870   23.0670 C.3      12 GLL5        0.0000 
      3 CA         -8.8550   26.5890   24.5460 C.3       8 GLP5        0.0000 
      4 OD1       -10.1320   23.9065   23.9610 O.co2     3 ASC3        0.0000 
      5 OD1       -10.9000   23.6670   22.2090 O.co2    11 ASL3        0.0000 
      6 OD1        -9.3640   24.1460   25.7130 O.co2     7 ASP3        0.0000 
      7 CA         -7.0970   23.2065   19.0450 C.3       4 GLC5        0.0000 
      8 CA         -8.8690   23.1630   19.2510 C.3      12 GLL5        0.0000 
      9 CA         -5.3250   23.2500   18.8390 C.3       8 GLP5        0.0000 
     10 CA         -6.6970   22.0450   18.8095 C.3       4 GLC5        0.0000 
     11 CA         -8.0690   20.8400   18.7800 C.3      12 GLL5        0.0000 
     12 CA         -6.9550   22.6730   17.9160 C.3       4 GLC5        0.0000 
     13 CA         -8.5850   22.0960   16.9930 C.3      12 GLL5        0.0000 
     14 O          -5.2805   15.6505   16.6015 O.2       1 ALC1        0.0000 
     15 O          -6.0130   16.7280   17.2250 O.2       9 ALL1        0.0000 
     16 O          -4.5480   14.5730   15.9780 O.2       5 ALP1        0.0000 
     17 N          -5.8265   14.5950   19.3570 N.am      2 SEC2        0.0000 
     18 N          -6.7460   15.2420   18.7350 N.am     10 SEL2        0.0000 
     19 N          -4.9070   13.9480   19.9790 N.am      6 SEP2        0.0000 
     20 CA         -8.3915   15.8390   17.5330 C.3       4 GLC5        0.0000 
     21 CA         -7.7110   17.5110   18.6850 C.3      12 GLL5        0.0000 
     22 CA         -9.0720   14.1670   16.3810 C.3       8 GLP5        0.0000 
     23 CA        -11.4340   16.8855   19.2390 C.3       4 GLC5        0.0000 
     24 CA        -10.8120   18.9050   19.1480 C.3      12 GLL5        0.0000 
     25 CA        -12.0560   14.8660   19.3300 C.3       8 GLP5        0.0000 
     26 CA        -12.5615   18.6965   17.9615 C.3       4 GLC5        0.0000 
     27 CA        -12.0730   19.3400   19.6200 C.3      12 GLL5        0.0000 
     28 CA        -13.0500   18.0530   16.3030 C.3       8 GLP5        0.0000 
     29 CA         -6.8693   19.9535   19.6713 C.3       4 GLC5        0.0000 
     30 CA         -5.7750   19.4500   21.1320 C.3       8 GLP5        0.0000 
     31 CA         -7.6848   24.2610   16.1515 C.3       4 GLC5        0.0000 
     32 CA         -6.5910   25.9220   15.7800 C.3       8 GLP5        0.0000 
     33 CA         -7.3105   23.5767   14.6275 C.3       4 GLC5        0.0000 
     34 CA         -8.5300   21.5660   14.1790 C.3      12 GLL5        0.0000 
     35 CA         -5.8840   24.9480   14.8310 C.3       8 GLP5        0.0000 
     36 CA         -9.5595   21.2251   13.1073 C.3       4 GLC5        0.0000 
     37 CA         -8.9440   22.8450   14.6690 C.3      12 GLL5        0.0000 
     38 CA        -10.6810   21.0770   11.4550 C.3       8 GLP5        0.0000 
     39 CA         -6.2165   21.4052   17.5437 C.3       4 GLC5        0.0000 
     40 CA         -8.1700   20.8210   16.5000 C.3      12 GLL5        0.0000 
     41 CA         -4.4190   22.3630   18.0170 C.3       8 GLP5        0.0000 
     42 CA         -6.6530   18.7602   19.6790 C.3       4 GLC5        0.0000 
     43 CA         -7.3510   18.6300   17.7670 C.3      12 GLL5        0.0000 
     44 CA         -7.1670   18.2460   20.7630 C.3       4 GLC5        0.0000 
     45 CA         -8.7160   17.4240   19.8290 C.3      12 GLL5        0.0000 
     46 CA        -11.1445   17.7773   17.9937 C.3       4 GLC5        0.0000 
     47 CA        -10.0040   18.0400   19.9650 C.3      12 GLL5        0.0000 
     48 CA        -11.8810   17.0820   16.4310 C.3       8 GLP5        0.0000 
     49 CA        -14.0888   19.1600   19.8525 C.3       4 GLC5        0.0000 
     50 CA        -12.5100   18.9080   20.8960 C.3      12 GLL5        0.0000 
     51 CA        -15.8860   19.1960   19.4470 C.3       8 GLP5        0.0000 
     52 CA        -12.6951   17.0515   20.2645 C.3       4 GLC5        0.0000 
     53 CA        -13.3840   15.5190   19.5390 C.3       8 GLP5        0.0000 
     54 CA        -10.6030   16.0147   20.0469 C.3       4 GLC5        0.0000 
     55 CA        -10.4360   17.6020   21.2400 C.3      12 GLL5        0.0000 
@<TRIPOS>BOND
@<TRIPOS>SUBSTRUCTURE
     1 ALC1       14 GROUP        1 X    ALC  0     ROOT ALC X 1
     2 SEC2       17 GROUP        1 X    SEC  0     **** SEC X 2
     3 ASC3        4 GROUP        1 X    ASC  0     **** ASC X 3
     4 GLC5        1 GROUP        1 X    GLC  0     **** GLC X 6
     5 ALP1       16 GROUP        1 Y    ALP  0     ROOT ALP Y 8
     6 SEP2       19 GROUP        1 Y    SEP  0     **** SEP Y 9
     7 ASP3        6 GROUP        1 Y    ASP  0     **** ASP Y 10
     8 GLP5        3 GROUP        1 Y    GLP  0     **** GLP Y 13
     9 ALL1       15 GROUP        1 Z    ALL  0     ROOT ALL Z 15
    10 SEL2       18 GROUP        1 Z    SEL  0     **** SEL Z 16
    11 ASL3        5 GROUP        1 Z    ASL  0     **** ASL Z 17
    12 GLL5        2 GROUP        1 Z    GLL  0     **** GLL Z 20
@<TRIPOS>SET

