#    Name: 1zrz_BI1_1_ligand
#    Modification time : Mon Mar 24 17:48:23 2014

@<TRIPOS>MOLECULE
1zrz_BI1_1_ligand
   56    60     1     0     0
SMALL
NO_CHARGES


@<TRIPOS>ATOM
      1 CBD       -11.2450   24.7870   23.0670 C.3       1 BI11000     0.0000 
      2 NBC       -10.9000   23.6670   22.2090 N.4       1 BI11000     0.0000 
      3 CBE       -10.9470   22.3110   22.7580 C.3       1 BI11000     0.0000 
      4 CBB       -10.5320   24.0460   20.8220 C.3       1 BI11000     0.0000 
      5 CBA       -10.1970   22.8530   19.9290 C.3       1 BI11000     0.0000 
      6 CAY        -8.8690   23.1630   19.2510 C.3       1 BI11000     0.0000 
      7 NAH        -8.5150   22.0610   18.3450 N.pl3     1 BI11000     0.0000 
      8 CAW        -8.0690   20.8400   18.7800 C.2       1 BI11000     0.0000 
      9 CAE        -8.5850   22.0960   16.9930 C.ar      1 BI11000     0.0000 
     10 CAF        -8.9720   23.1040   16.0530 C.ar      1 BI11000     0.0000 
     11 CAA        -8.9440   22.8450   14.6690 C.ar      1 BI11000     0.0000 
     12 CAB        -8.5300   21.5660   14.1790 C.ar      1 BI11000     0.0000 
     13 CAC        -8.1390   20.5410   15.0950 C.ar      1 BI11000     0.0000 
     14 CAD        -8.1700   20.8210   16.5000 C.ar      1 BI11000     0.0000 
     15 CAG        -7.8580   20.0740   17.6410 C.2       1 BI11000     0.0000 
     16 CAI        -7.3510   18.6300   17.7670 C.2       1 BI11000     0.0000 
     17 CAT        -6.2980   18.0070   16.9250 C.2       1 BI11000     0.0000 
     18 OAZ        -5.6880   18.6160   15.9810 O.2       1 BI11000     0.0000 
     19 NAU        -6.0130   16.7280   17.2250 N.am      1 BI11000     0.0000 
     20 CAV        -6.8050   16.4080   18.2330 C.2       1 BI11000     0.0000 
     21 OAX        -6.7460   15.2420   18.7350 O.2       1 BI11000     0.0000 
     22 CAJ        -7.7110   17.5110   18.6850 C.2       1 BI11000     0.0000 
     23 CAK        -8.7160   17.4240   19.8290 C.2       1 BI11000     0.0000 
     24 CAM       -10.0040   18.0400   19.9650 C.ar      1 BI11000     0.0000 
     25 CAP       -10.8120   18.9050   19.1480 C.ar      1 BI11000     0.0000 
     26 CAQ       -12.0730   19.3400   19.6200 C.ar      1 BI11000     0.0000 
     27 CAR       -12.5100   18.9080   20.8960 C.ar      1 BI11000     0.0000 
     28 CAS       -11.7210   18.0440   21.7220 C.ar      1 BI11000     0.0000 
     29 CAN       -10.4360   17.6020   21.2400 C.ar      1 BI11000     0.0000 
     30 NAO        -9.4660   16.7930   21.7840 N.pl3     1 BI11000     0.0000 
     31 CAL        -8.4020   16.6600   20.9590 C.2       1 BI11000     0.0000 
     32 H          -9.5203   23.8118   22.6139 H         1 BI11000     0.0000 
     33 H          -9.6590   24.7249   20.8351 H         1 BI11000     0.0000 
     34 H         -11.3600   24.6088   20.3520 H         1 BI11000     0.0000 
     35 H         -10.9634   22.7338   19.1868 H         1 BI11000     0.0000 
     36 H         -10.0985   21.9700   20.5316 H         1 BI11000     0.0000 
     37 H          -8.1074   23.2898   20.0202 H         1 BI11000     0.0000 
     38 H          -8.9700   24.0980   18.7001 H         1 BI11000     0.0000 
     39 H          -7.9302   20.5656   19.6684 H         1 BI11000     0.0000 
     40 H          -9.2706   24.0192   16.4006 H         1 BI11000     0.0000 
     41 H          -9.2193   23.5687   14.0023 H         1 BI11000     0.0000 
     42 H          -8.5142   21.3872   13.1795 H         1 BI11000     0.0000 
     43 H          -7.8467   19.6378   14.7608 H         1 BI11000     0.0000 
     44 H          -5.3662   16.1746   16.7891 H         1 BI11000     0.0000 
     45 H         -10.4700   19.1963   18.2385 H         1 BI11000     0.0000 
     46 H         -12.6522   19.9484   19.0568 H         1 BI11000     0.0000 
     47 H         -13.4285   19.2232   21.2492 H         1 BI11000     0.0000 
     48 H         -12.0535   17.7484   22.6229 H         1 BI11000     0.0000 
     49 H          -9.5473   16.3687   22.6658 H         1 BI11000     0.0000 
     50 H          -7.6156   16.1715   21.0886 H         1 BI11000     0.0000 
     51 H         -10.6439   24.8431   23.8642 H         1 BI11000     0.0000 
     52 H         -11.1742   25.6600   22.5845 H         1 BI11000     0.0000 
     53 H         -12.1815   24.7170   23.4105 H         1 BI11000     0.0000 
     54 H         -10.6936   21.6251   22.0758 H         1 BI11000     0.0000 
     55 H         -10.3215   22.2012   23.5305 H         1 BI11000     0.0000 
     56 H         -11.8617   22.0745   23.0856 H         1 BI11000     0.0000 
@<TRIPOS>BOND
     1    2    1 1    
     2   51    1 1    
     3   52    1 1    
     4   53    1 1    
     5    3    2 1    
     6    4    2 1    
     7   32    2 1    
     8   54    3 1    
     9   55    3 1    
    10   56    3 1    
    11    5    4 1    
    12   33    4 1    
    13   34    4 1    
    14    6    5 1    
    15   35    5 1    
    16   36    5 1    
    17    7    6 1    
    18   37    6 1    
    19   38    6 1    
    20    8    7 1    
    21    9    7 1    
    22   15    8 2    
    23   39    8 1    
    24   10    9 ar   
    25   14    9 ar   
    26   11   10 ar   
    27   40   10 1    
    28   12   11 ar   
    29   41   11 1    
    30   13   12 ar   
    31   42   12 1    
    32   14   13 ar   
    33   43   13 1    
    34   15   14 1    
    35   16   15 1    
    36   17   16 1    
    37   22   16 2    
    38   18   17 2    
    39   19   17 am   
    40   20   19 am   
    41   44   19 1    
    42   21   20 2    
    43   22   20 1    
    44   23   22 1    
    45   24   23 1    
    46   31   23 2    
    47   25   24 ar   
    48   29   24 ar   
    49   26   25 ar   
    50   45   25 1    
    51   27   26 ar   
    52   46   26 1    
    53   28   27 ar   
    54   47   27 1    
    55   29   28 ar   
    56   48   28 1    
    57   30   29 1    
    58   31   30 1    
    59   49   30 1    
    60   50   31 1    
@<TRIPOS>SUBSTRUCTURE
     1 BI11000     1 GROUP   
@<TRIPOS>SET

