#    Name: 4hlm_16S_1_INTS_M
#    Modification time : Tue Mar 25 01:11:15 2014

@<TRIPOS>MOLECULE
4hlm_16S_1_INTS_M
   43     0     6     0     0
SMALL
NO_CHARGES


@<TRIPOS>ATOM
      1 CA         -8.7210   35.8130  -10.8980 C.3       2 GLC5        0.0000 
      2 CA         -6.8690   36.6720  -10.3360 C.3       6 GLL5        0.0000 
      3 CA        -10.5730   34.9540  -11.4600 C.3       4 GLP5        0.0000 
      4 CA         -5.0450   36.6090  -12.8000 C.3       2 GLC5        0.0000 
      5 CA         -6.9700   36.4390  -11.7320 C.3       6 GLL5        0.0000 
      6 CA         -3.1200   36.7790  -13.8680 C.3       4 GLP5        0.0000 
      7 CA         -7.7980   34.9805  -11.2075 C.3       2 GLC5        0.0000 
      8 CA         -8.6260   33.5220  -10.6830 C.3       4 GLP5        0.0000 
      9 CA         -6.6280   32.6605  -16.1625 C.3       2 GLC5        0.0000 
     10 CA         -5.1370   33.8620  -15.3260 C.3       6 GLL5        0.0000 
     11 CA         -8.1190   31.4590  -16.9990 C.3       4 GLP5        0.0000 
     12 CA         -4.8980   33.7320  -17.9255 C.3       2 GLC5        0.0000 
     13 CA         -5.8740   34.6120  -16.2500 C.3       6 GLL5        0.0000 
     14 CA         -3.9220   32.8520  -19.6010 C.3       4 GLP5        0.0000 
     15 CA         -5.7855   37.2390  -16.6970 C.3       2 GLC5        0.0000 
     16 CA         -6.7560   35.6150  -15.8080 C.3       6 GLL5        0.0000 
     17 CA         -4.8150   38.8630  -17.5860 C.3       4 GLP5        0.0000 
     18 N          -9.6565   38.3255  -14.4690 N.am      1 SEC2        0.0000 
     19 N          -8.4960   37.4310  -14.7600 N.am      5 SEL2        0.0000 
     20 N         -10.8170   39.2200  -14.1780 N.am      3 SEP2        0.0000 
     21 N          -9.2350   37.3995  -16.0540 N.am      1 SEC2        0.0000 
     22 N          -9.9740   37.3680  -17.3480 N.am      3 SEP2        0.0000 
     23 CA         -7.9485   39.2815  -13.2460 C.3       2 GLC5        0.0000 
     24 CA         -7.7730   37.1640  -12.6190 C.3       6 GLL5        0.0000 
     25 CA         -8.1240   41.3990  -13.8730 C.3       4 GLP5        0.0000 
     26 CA         -9.1730   36.0590  -12.0395 C.3       2 GLC5        0.0000 
     27 CA         -9.0393   39.0910   -9.2340 C.3       2 GLC5        0.0000 
     28 CA         -7.3660   37.8310   -9.6990 C.3       6 GLL5        0.0000 
     29 CA        -10.7980   40.2730   -9.4630 C.3       4 GLP5        0.0000 
     30 CA         -4.2907   35.7155   -8.9320 C.3       2 GLC5        0.0000 
     31 CA         -6.0450   35.8760   -8.1610 C.3       6 GLL5        0.0000 
     32 CA         -2.4570   35.6330   -9.0130 C.3       4 GLP5        0.0000 
     33 CA         -6.7836   34.5323   -7.5336 C.3       2 GLC5        0.0000 
     34 CA         -6.2040   35.7200   -9.5410 C.3       6 GLL5        0.0000 
     35 CA         -7.3180   32.9820   -6.3690 C.3       4 GLP5        0.0000 
     36 CA         -4.4023   35.7013  -13.8090 C.3       2 GLC5        0.0000 
     37 CA         -6.1170   35.1230  -13.5390 C.3       6 GLL5        0.0000 
     38 CA         -4.3127   35.5080  -14.8280 C.3       2 GLC5        0.0000 
     39 CA         -6.9730   35.4163  -17.8180 C.3       2 GLC5        0.0000 
     40 CA         -7.6310   35.7190  -19.6070 C.3       4 GLP5        0.0000 
     41 CA         -7.2975   33.8287  -17.0460 C.3       2 GLC5        0.0000 
     42 CA         -8.2800   32.5440  -18.0630 C.3       4 GLP5        0.0000 
     43 CA         -4.9703   36.2572  -14.4965 C.3       2 GLC5        0.0000 
@<TRIPOS>BOND
@<TRIPOS>SUBSTRUCTURE
     1 SEC2       18 GROUP        1 X    SEC  0     ROOT SEC X 2
     2 GLC5        1 GROUP        1 X    GLC  0     **** GLC X 6
     3 SEP2       20 GROUP        1 Y    SEP  0     ROOT SEP Y 9
     4 GLP5        3 GROUP        1 Y    GLP  0     **** GLP Y 13
     5 SEL2       19 GROUP        1 Z    SEL  0     ROOT SEL Z 16
     6 GLL5        2 GROUP        1 Z    GLL  0     **** GLL Z 20
@<TRIPOS>SET

