#    Name: 4hlm_16S_1_ligand
#    Modification time : Tue Mar 25 01:11:15 2014

@<TRIPOS>MOLECULE
4hlm_16S_1_ligand
   29    31     1     0     0
SMALL
NO_CHARGES


@<TRIPOS>ATOM
      1 CAM        -7.3660   37.8310   -9.6990 C.ar      1 16S1204     0.0000 
      2 CAL        -7.1950   37.9870   -8.3110 C.ar      1 16S1204     0.0000 
      3 OAR        -7.6480   39.0670   -7.6210 O.3       1 16S1204     0.0000 
      4 CAP        -6.5440   37.0140   -7.5500 C.ar      1 16S1204     0.0000 
      5 OAS        -6.4320   37.2290   -6.2110 O.3       1 16S1204     0.0000 
      6 CAO        -6.0450   35.8760   -8.1610 C.ar      1 16S1204     0.0000 
      7 CAN        -6.2040   35.7200   -9.5410 C.ar      1 16S1204     0.0000 
      8 CAK        -6.8690   36.6720  -10.3360 C.ar      1 16S1204     0.0000 
      9 CAJ        -6.9700   36.4390  -11.7320 C.2       1 16S1204     0.0000 
     10 OAG        -6.2050   35.4000  -12.1940 O.3       1 16S1204     0.0000 
     11 CAF        -6.1170   35.1230  -13.5390 C.ar      1 16S1204     0.0000 
     12 CAA        -5.2520   34.1240  -13.9610 C.ar      1 16S1204     0.0000 
     13 CAB        -5.1370   33.8620  -15.3260 C.ar      1 16S1204     0.0000 
     14 CAC        -5.8740   34.6120  -16.2500 C.ar      1 16S1204     0.0000 
     15 CAD        -6.7560   35.6150  -15.8080 C.ar      1 16S1204     0.0000 
     16 CAE        -6.8850   35.8560  -14.4420 C.ar      1 16S1204     0.0000 
     17 CAH        -7.7400   36.8600  -13.9810 C.2       1 16S1204     0.0000 
     18 OAQ        -8.4960   37.4310  -14.7600 O.2       1 16S1204     0.0000 
     19 CAI        -7.7730   37.1640  -12.6190 C.2       1 16S1204     0.0000 
     20 H          -7.8443   38.5471  -10.2428 H         1 16S1204     0.0000 
     21 H          -5.5662   35.1566   -7.6159 H         1 16S1204     0.0000 
     22 H          -5.8176   34.8696  -10.0014 H         1 16S1204     0.0000 
     23 H          -4.7065   33.5869  -13.2855 H         1 16S1204     0.0000 
     24 H          -4.5110   33.1178  -15.6562 H         1 16S1204     0.0000 
     25 H          -5.7727   34.4318  -17.2552 H         1 16S1204     0.0000 
     26 H          -7.2927   36.1568  -16.4857 H         1 16S1204     0.0000 
     27 H          -8.3788   37.9104  -12.2710 H         1 16S1204     0.0000 
     28 H          -7.4857   38.8462   -6.6593 H         1 16S1204     0.0000 
     29 H          -5.4497   37.3129   -6.0438 H         1 16S1204     0.0000 
@<TRIPOS>BOND
     1    2    1 ar   
     2    8    1 ar   
     3   20    1 1    
     4    3    2 1    
     5    4    2 ar   
     6   28    3 1    
     7    5    4 1    
     8    6    4 ar   
     9   29    5 1    
    10    7    6 ar   
    11   21    6 1    
    12    8    7 ar   
    13   22    7 1    
    14    9    8 1    
    15   10    9 1    
    16   19    9 2    
    17   11   10 1    
    18   12   11 ar   
    19   16   11 ar   
    20   13   12 ar   
    21   23   12 1    
    22   14   13 ar   
    23   24   13 1    
    24   15   14 ar   
    25   25   14 1    
    26   16   15 ar   
    27   26   15 1    
    28   17   16 1    
    29   18   17 2    
    30   19   17 1    
    31   27   19 1    
@<TRIPOS>SUBSTRUCTURE
     1 16S1204     1 GROUP   
@<TRIPOS>SET

