#    Name: 2y85_137_3_INTS_M
#    Modification time : Tue Mar 25 07:46:45 2014

@<TRIPOS>MOLECULE
2y85_137_3_INTS_M
   52     0     9     0     0
SMALL
NO_CHARGES


@<TRIPOS>ATOM
      1 N           5.3010   -1.0245    8.6865 N.am      2 SEC2        0.0000 
      2 N           4.9970    0.0070    7.6640 N.am      8 SEL2        0.0000 
      3 N           5.6050   -2.0560    9.7090 N.am      5 SEP2        0.0000 
      4 N           3.4730    2.6285    7.5165 N.am      2 SEC2        0.0000 
      5 N           2.9030    1.4490    7.8950 N.am      8 SEL2        0.0000 
      6 N           4.0430    3.8080    7.1380 N.am      5 SEP2        0.0000 
      7 N           1.6240    1.8915    7.8515 N.am      2 SEC2        0.0000 
      8 N           0.3450    2.3340    7.8080 N.am      5 SEP2        0.0000 
      9 N           3.2085   -2.4225    7.9625 N.am      2 SEC2        0.0000 
     10 N           2.7290   -1.0980    8.1230 N.am      8 SEL2        0.0000 
     11 N           3.6880   -3.7470    7.8020 N.am      5 SEP2        0.0000 
     12 N           4.1670   -1.5770    8.9160 N.am      2 SEC2        0.0000 
     13 CA          4.0845   -2.5065    6.6105 C.3       3 GLC5        0.0000 
     14 CA          3.0540   -1.1980    5.1230 C.3       9 GLL5        0.0000 
     15 CA          5.1150   -3.8150    8.0980 C.3       6 GLP5        0.0000 
     16 N           1.6680   -0.2670    2.4120 N.am      2 SEC2        0.0000 
     17 N           2.7330    0.2450    3.2190 N.am      8 SEL2        0.0000 
     18 N           0.6030   -0.7790    1.6050 N.am      5 SEP2        0.0000 
     19 O           3.0575    1.4035    3.4760 O.2       1 ALC1        0.0000 
     20 O           2.7330    0.2450    3.2190 O.2       7 ALL1        0.0000 
     21 O           3.3820    2.5620    3.7330 O.2       4 ALP1        0.0000 
     22 O           7.0515   -2.8335    2.3715 O.2       1 ALC1        0.0000 
     23 O           5.8370   -2.3090    2.2620 O.2       7 ALL1        0.0000 
     24 O           8.2660   -3.3580    2.4810 O.2       4 ALP1        0.0000 
     25 CA          6.1345    3.3240   -0.4300 C.3       3 GLC5        0.0000 
     26 CA          7.5220    1.6790   -0.5040 C.3       9 GLL5        0.0000 
     27 CA          4.7470    4.9690   -0.3560 C.3       6 GLP5        0.0000 
     28 N           4.3520   -2.8035   -1.3790 N.am      2 SEC2        0.0000 
     29 N           4.9810   -1.4860   -2.0160 N.am      8 SEL2        0.0000 
     30 N           3.7230   -4.1210   -0.7420 N.am      5 SEP2        0.0000 
     31 N           4.8665   -2.2810   -3.3785 N.am      2 SEC2        0.0000 
     32 N           4.7520   -3.0760   -4.7410 N.am      5 SEP2        0.0000 
     33 N           5.0365   -1.9130   -4.3820 N.am      2 SEC2        0.0000 
     34 N           5.3210   -0.7500   -4.0230 N.am      8 SEL2        0.0000 
     35 CA          1.7298    0.2710    4.9597 C.3       3 GLC5        0.0000 
     36 CA          3.4390   -0.8880    3.6800 C.3       9 GLL5        0.0000 
     37 CA          0.2130    1.5850    5.5180 C.3       6 GLP5        0.0000 
     38 CA          2.4232   -2.6670    3.8273 C.3       3 GLC5        0.0000 
     39 CA          1.6000   -4.2910    3.2530 C.3       6 GLP5        0.0000 
     40 CA          7.5793   -1.0395   -1.6430 C.3       3 GLC5        0.0000 
     41 CA          6.7180    0.5970   -0.8920 C.3       9 GLL5        0.0000 
     42 CA          8.6100   -2.6130   -1.7190 C.3       6 GLP5        0.0000 
     43 CA          8.8010    0.6710   -0.5280 C.3       3 GLC5        0.0000 
     44 CA         10.4820    0.2040   -0.3580 C.3       6 GLP5        0.0000 
     45 CA          9.1485    1.3843   -1.2128 C.3       3 GLC5        0.0000 
     46 CA          7.9790    2.6280   -1.4030 C.3       9 GLL5        0.0000 
     47 CA          8.6878    1.7595   -4.0953 C.3       3 GLC5        0.0000 
     48 CA          7.6510    2.5010   -2.7320 C.3       9 GLL5        0.0000 
     49 CA         10.1200    1.5510   -5.2560 C.3       6 GLP5        0.0000 
     50 CA          6.7368    3.7929   -2.4681 C.3       3 GLC5        0.0000 
     51 CA          6.8600    1.4350   -3.1370 C.3       9 GLL5        0.0000 
     52 CA          6.1360    5.5860   -2.3340 C.3       6 GLP5        0.0000 
@<TRIPOS>BOND
@<TRIPOS>SUBSTRUCTURE
     1 ALC1       19 GROUP        1 X    ALC  0     ROOT ALC X 1
     2 SEC2        1 GROUP        1 X    SEC  0     **** SEC X 2
     3 GLC5       13 GROUP        1 X    GLC  0     **** GLC X 6
     4 ALP1       21 GROUP        1 Y    ALP  0     ROOT ALP Y 8
     5 SEP2        3 GROUP        1 Y    SEP  0     **** SEP Y 9
     6 GLP5       15 GROUP        1 Y    GLP  0     **** GLP Y 13
     7 ALL1       20 GROUP        1 Z    ALL  0     ROOT ALL Z 15
     8 SEL2        2 GROUP        1 Z    SEL  0     **** SEL Z 16
     9 GLL5       14 GROUP        1 Z    GLL  0     **** GLL Z 20
@<TRIPOS>SET

