#    Name: 2y85_137_3_ligand
#    Modification time : Tue Mar 25 07:46:45 2014

@<TRIPOS>MOLECULE
2y85_137_3_ligand
   38    38     1     0     0
SMALL
NO_CHARGES


@<TRIPOS>ATOM
      1 P           3.4100    0.0130    7.4220 P.3       1 1371247     0.0000 
      2 O1P         4.9970    0.0070    7.6640 O.co2     1 1371247     0.0000 
      3 O2P         2.9030    1.4490    7.8950 O.co2     1 1371247     0.0000 
      4 O3P         2.7290   -1.0980    8.1230 O.co2     1 1371247     0.0000 
      5 O5'         3.1200    0.0090    5.8810 O.3       1 1371247     0.0000 
      6 C5'         3.0540   -1.1980    5.1230 C.3       1 1371247     0.0000 
      7 C4'         3.4390   -0.8880    3.6800 C.3       1 1371247     0.0000 
      8 O4'         2.7330    0.2450    3.2190 O.3       1 1371247     0.0000 
      9 C3'         4.9010   -0.4960    3.5480 C.3       1 1371247     0.0000 
     10 O3'         5.7130   -1.1530    4.5270 O.3       1 1371247     0.0000 
     11 C2'         5.3380   -0.9610    2.1640 C.3       1 1371247     0.0000 
     12 O2'         5.8370   -2.3090    2.2620 O.3       1 1371247     0.0000 
     13 C1'         6.3560   -0.0300    1.4820 C.3       1 1371247     0.0000 
     14 NH          6.3200   -0.2980    0.0310 N.pl3     1 1371247     0.0000 
     15 C1          6.3790    0.4710   -2.2420 C.ar      1 1371247     0.0000 
     16 C2          6.7180    0.5970   -0.8920 C.ar      1 1371247     0.0000 
     17 C3          7.5220    1.6790   -0.5040 C.ar      1 1371247     0.0000 
     18 C4          7.9790    2.6280   -1.4030 C.ar      1 1371247     0.0000 
     19 C5          7.6510    2.5010   -2.7320 C.ar      1 1371247     0.0000 
     20 C6          6.8600    1.4350   -3.1370 C.ar      1 1371247     0.0000 
     21 C7          5.5030   -0.6820   -2.7900 C.2       1 1371247     0.0000 
     22 O71         4.9810   -1.4860   -2.0160 O.co2     1 1371247     0.0000 
     23 O72         5.3210   -0.7500   -4.0230 O.co2     1 1371247     0.0000 
     24 H           2.0476   -1.6214    5.1184 H         1 1371247     0.0000 
     25 H           3.7458   -1.9540    5.5000 H         1 1371247     0.0000 
     26 H           3.2586   -1.7381    3.0642 H         1 1371247     0.0000 
     27 H           4.9832    0.5617    3.5845 H         1 1371247     0.0000 
     28 H           4.4282   -0.9677    1.5275 H         1 1371247     0.0000 
     29 H           7.3364   -0.2380    1.8899 H         1 1371247     0.0000 
     30 H           6.0780    0.9941    1.6935 H         1 1371247     0.0000 
     31 H           5.9600   -1.2419   -0.2378 H         1 1371247     0.0000 
     32 H           7.7822    1.7657    0.5047 H         1 1371247     0.0000 
     33 H           8.5535    3.4124   -1.0776 H         1 1371247     0.0000 
     34 H           7.9845    3.1839   -3.4218 H         1 1371247     0.0000 
     35 H           6.6107    1.3433   -4.1477 H         1 1371247     0.0000 
     36 H           3.4312    0.9484    3.0858 H         1 1371247     0.0000 
     37 H           6.0038   -2.0053    4.0922 H         1 1371247     0.0000 
     38 H           6.8324   -2.2154    2.2835 H         1 1371247     0.0000 
@<TRIPOS>BOND
     1    2    1 ar   
     2    3    1 ar   
     3    4    1 ar   
     4    5    1 1    
     5    6    5 1    
     6    7    6 1    
     7   24    6 1    
     8   25    6 1    
     9    8    7 1    
    10    9    7 1    
    11   26    7 1    
    12   36    8 1    
    13   10    9 1    
    14   11    9 1    
    15   27    9 1    
    16   37   10 1    
    17   12   11 1    
    18   13   11 1    
    19   28   11 1    
    20   38   12 1    
    21   14   13 1    
    22   29   13 1    
    23   30   13 1    
    24   16   14 1    
    25   31   14 1    
    26   16   15 ar   
    27   20   15 ar   
    28   21   15 1    
    29   17   16 ar   
    30   18   17 ar   
    31   32   17 1    
    32   19   18 ar   
    33   33   18 1    
    34   20   19 ar   
    35   34   19 1    
    36   35   20 1    
    37   22   21 ar   
    38   23   21 ar   
@<TRIPOS>SUBSTRUCTURE
     1 1371247     1 GROUP   
@<TRIPOS>SET

