#    Name: 3n8h_AMP_1_INTS_M
#    Modification time : Tue Mar 25 01:02:07 2014

@<TRIPOS>MOLECULE
3n8h_AMP_1_INTS_M
   65     0    12     0     0
SMALL
NO_CHARGES


@<TRIPOS>ATOM
      1 N          17.4715  -13.9290   39.6405 N.am      2 SEC2        0.0000 
      2 N          18.1130  -13.3420   40.9440 N.am     10 SEL2        0.0000 
      3 N          16.8300  -14.5160   38.3370 N.am      6 SEP2        0.0000 
      4 N          17.3145  -13.5760   42.1185 N.am      2 SEC2        0.0000 
      5 N          16.5160  -13.8100   43.2930 N.am      6 SEP2        0.0000 
      6 NZ         21.4615  -11.9380   41.2425 N.4       3 LYC4        0.0000 
      7 NZ         20.2070  -12.5120   42.1820 N.4      11 LYL4        0.0000 
      8 NZ         22.7160  -11.3640   40.3030 N.4       7 LYP4        0.0000 
      9 N          20.1050  -13.2485   43.3270 N.am      2 SEC2        0.0000 
     10 N          20.2070  -12.5120   42.1820 N.am     10 SEL2        0.0000 
     11 N          20.0030  -13.9850   44.4720 N.am      6 SEP2        0.0000 
     12 NZ         21.2315  -11.5700   40.0770 N.4       3 LYC4        0.0000 
     13 NZ         19.7470  -11.7760   39.8510 N.4      11 LYL4        0.0000 
     14 CA         16.1065  -11.7135   40.0060 C.3       4 GLC5        0.0000 
     15 CA         17.0430  -10.6480   41.3650 C.3      12 GLL5        0.0000 
     16 CA         15.1700  -12.7790   38.6470 C.3       8 GLP5        0.0000 
     17 N          16.6370   -6.0250   43.0730 N.am      2 SEC2        0.0000 
     18 N          16.8080   -6.9960   42.0240 N.am     10 SEL2        0.0000 
     19 N          16.4660   -5.0540   44.1220 N.am      6 SEP2        0.0000 
     20 N          17.7300   -6.1135   43.9415 N.am      2 SEC2        0.0000 
     21 N          18.9940   -7.1730   43.7610 N.am     10 SEL2        0.0000 
     22 O          20.1705   -7.5400   43.6490 O.2       1 ALC1        0.0000 
     23 O          18.9940   -7.1730   43.7610 O.2       9 ALL1        0.0000 
     24 O          21.3470   -7.9070   43.5370 O.2       5 ALP1        0.0000 
     25 CA         15.4405   -8.2140   44.1715 C.3       4 GLC5        0.0000 
     26 CA         17.2760   -8.8430   44.2730 C.3      12 GLL5        0.0000 
     27 CA         13.6050   -7.5850   44.0700 C.3       8 GLP5        0.0000 
     28 N          20.6620  -10.8785   46.8065 N.am      2 SEC2        0.0000 
     29 N          19.1040  -10.7860   46.7620 N.am     10 SEL2        0.0000 
     30 N          22.2200  -10.9710   46.8510 N.am      6 SEP2        0.0000 
     31 CA         20.5335   -9.5070   47.9175 C.3       4 GLC5        0.0000 
     32 CA         18.3910   -9.9770   47.5860 C.3      12 GLL5        0.0000 
     33 CA         22.6760   -9.0370   48.2490 C.3       8 GLP5        0.0000 
     34 CA         19.4615   -8.6030   50.3060 C.3       4 GLC5        0.0000 
     35 CA         18.2690   -9.8020   49.0490 C.3      12 GLL5        0.0000 
     36 CA         20.6540   -7.4040   51.5630 C.3       8 GLP5        0.0000 
     37 CA         17.1040  -10.0050   50.8770 C.3       4 GLC5        0.0000 
     38 CA         15.9390  -10.2080   52.7050 C.3       8 GLP5        0.0000 
     39 O          19.0305  -10.5095   51.3745 O.2       1 ALC1        0.0000 
     40 O          19.0110  -10.5630   49.8700 O.2       9 ALL1        0.0000 
     41 O          19.0500  -10.4560   52.8790 O.2       5 ALP1        0.0000 
     42 O          19.8415  -11.5795   49.4970 O.2       1 ALC1        0.0000 
     43 O          20.6720  -12.5960   49.1240 O.2       5 ALP1        0.0000 
     44 N          17.4170   -8.5825   50.8920 N.am      2 SEC2        0.0000 
     45 N          17.4210   -8.8740   49.5280 N.am     10 SEL2        0.0000 
     46 N          17.4130   -8.2910   52.2560 N.am      6 SEP2        0.0000 
     47 CA         15.9550   -9.9585   48.8955 C.3       4 GLC5        0.0000 
     48 CA         16.7070   -8.1020   48.6740 C.3      12 GLL5        0.0000 
     49 CA         15.2030  -11.8150   49.1170 C.3       8 GLP5        0.0000 
     50 CA         15.0125   -7.6815   47.5940 C.3       4 GLC5        0.0000 
     51 CA         13.3180   -7.2610   46.5140 C.3       8 GLP5        0.0000 
     52 CA         16.8735   -6.6015   47.0625 C.3       4 GLC5        0.0000 
     53 CA         17.0400   -5.1010   45.4510 C.3       8 GLP5        0.0000 
     54 CA         17.5585   -7.1585   50.0690 C.3       4 GLC5        0.0000 
     55 CA         18.4100   -6.2150   51.4640 C.3       8 GLP5        0.0000 
     56 CA         15.6930   -8.8010   50.4545 C.3       4 GLC5        0.0000 
     57 CA         14.6790   -9.5000   52.2350 C.3       8 GLP5        0.0000 
     58 CA         17.3040   -7.1100   46.0905 C.3       4 GLC5        0.0000 
     59 CA         17.5680   -9.1190   46.7300 C.3      12 GLL5        0.0000 
     60 CA         16.0882  -11.5702   42.6365 C.3       4 GLC5        0.0000 
     61 CA         16.5880   -9.4190   42.1130 C.3      12 GLL5        0.0000 
     62 CA         15.3610  -13.1070   43.5340 C.3       8 GLP5        0.0000 
     63 CA         15.3380   -8.2035   43.0667 C.3       4 GLC5        0.0000 
     64 CA         17.4267   -6.8495   44.6202 C.3       4 GLC5        0.0000 
     65 CA         16.5760  -10.6596   48.3204 C.3       4 GLC5        0.0000 
@<TRIPOS>BOND
@<TRIPOS>SUBSTRUCTURE
     1 ALC1       22 GROUP        1 X    ALC  0     ROOT ALC X 1
     2 SEC2        1 GROUP        1 X    SEC  0     **** SEC X 2
     3 LYC4        6 GROUP        1 X    LYC  0     **** LYC X 4
     4 GLC5       14 GROUP        1 X    GLC  0     **** GLC X 6
     5 ALP1       24 GROUP        1 Y    ALP  0     ROOT ALP Y 8
     6 SEP2        3 GROUP        1 Y    SEP  0     **** SEP Y 9
     7 LYP4        8 GROUP        1 Y    LYP  0     **** LYP Y 11
     8 GLP5       16 GROUP        1 Y    GLP  0     **** GLP Y 13
     9 ALL1       23 GROUP        1 Z    ALL  0     ROOT ALL Z 15
    10 SEL2        2 GROUP        1 Z    SEL  0     **** SEL Z 16
    11 LYL4        7 GROUP        1 Z    LYL  0     **** LYL Z 18
    12 GLL5       15 GROUP        1 Z    GLL  0     **** GLL Z 20
@<TRIPOS>SET

