#    Name: 3n8h_AMP_1_ligand
#    Modification time : Tue Mar 25 01:02:07 2014

@<TRIPOS>MOLECULE
3n8h_AMP_1_ligand
   35    37     1     0     0
SMALL
NO_CHARGES


@<TRIPOS>ATOM
      1 P          19.1690  -12.2570   41.1320 P.3       1 AMP270      0.0000 
      2 O1P        18.1130  -13.3420   40.9440 O.co2     1 AMP270      0.0000 
      3 O2P        20.2070  -12.5120   42.1820 O.co2     1 AMP270      0.0000 
      4 O3P        19.7470  -11.7760   39.8510 O.co2     1 AMP270      0.0000 
      5 O5'        18.3240  -11.0660   41.8380 O.3       1 AMP270      0.0000 
      6 C5'        17.0430  -10.6480   41.3650 C.3       1 AMP270      0.0000 
      7 C4'        16.5880   -9.4190   42.1130 C.3       1 AMP270      0.0000 
      8 O4'        16.4690   -9.7480   43.5340 O.3       1 AMP270      0.0000 
      9 C3'        17.5540   -8.2250   42.0140 C.3       1 AMP270      0.0000 
     10 O3'        16.8080   -6.9960   42.0240 O.3       1 AMP270      0.0000 
     11 C2'        18.3510   -8.3530   43.3060 C.3       1 AMP270      0.0000 
     12 O2'        18.9940   -7.1730   43.7610 O.3       1 AMP270      0.0000 
     13 C1'        17.2760   -8.8430   44.2730 C.3       1 AMP270      0.0000 
     14 N9         17.8430   -9.4770   45.4690 N.pl3     1 AMP270      0.0000 
     15 C8         18.7740  -10.4590   45.4810 C.2       1 AMP270      0.0000 
     16 N7         19.1040  -10.7860   46.7620 N.2       1 AMP270      0.0000 
     17 C5         18.3910   -9.9770   47.5860 C.ar      1 AMP270      0.0000 
     18 C6         18.2690   -9.8020   49.0490 C.ar      1 AMP270      0.0000 
     19 N6         19.0110  -10.5630   49.8700 N.pl3     1 AMP270      0.0000 
     20 N1         17.4210   -8.8740   49.5280 N.ar      1 AMP270      0.0000 
     21 C2         16.7070   -8.1020   48.6740 C.ar      1 AMP270      0.0000 
     22 N3         16.7580   -8.2080   47.3290 N.ar      1 AMP270      0.0000 
     23 C4         17.5680   -9.1190   46.7300 C.ar      1 AMP270      0.0000 
     24 H          16.2869  -11.4341   41.5050 H         1 AMP270      0.0000 
     25 H          17.0700  -10.4063   40.2925 H         1 AMP270      0.0000 
     26 H          15.6240   -9.1036   41.7426 H         1 AMP270      0.0000 
     27 H          18.1788   -8.3569   41.2016 H         1 AMP270      0.0000 
     28 H          19.0318   -9.1915   43.1715 H         1 AMP270      0.0000 
     29 H          16.6872   -7.9706   44.5560 H         1 AMP270      0.0000 
     30 H          19.1579  -10.8771   44.6878 H         1 AMP270      0.0000 
     31 H          18.8953  -10.3960   50.8491 H         1 AMP270      0.0000 
     32 H          19.6129  -11.2286   49.4289 H         1 AMP270      0.0000 
     33 H          16.0605   -7.3598   49.0949 H         1 AMP270      0.0000 
     34 H          15.9981   -7.1805   41.4672 H         1 AMP270      0.0000 
     35 H          19.8855   -7.1731   43.3080 H         1 AMP270      0.0000 
@<TRIPOS>BOND
     1    2    1 ar   
     2    3    1 ar   
     3    4    1 ar   
     4    5    1 1    
     5    6    5 1    
     6    7    6 1    
     7   24    6 1    
     8   25    6 1    
     9    8    7 1    
    10    9    7 1    
    11   26    7 1    
    12   13    8 1    
    13   10    9 1    
    14   11    9 1    
    15   27    9 1    
    16   34   10 1    
    17   12   11 1    
    18   13   11 1    
    19   28   11 1    
    20   35   12 1    
    21   14   13 1    
    22   29   13 1    
    23   15   14 1    
    24   23   14 1    
    25   16   15 2    
    26   30   15 1    
    27   17   16 1    
    28   18   17 ar   
    29   23   17 ar   
    30   19   18 1    
    31   20   18 ar   
    32   31   19 1    
    33   32   19 1    
    34   21   20 ar   
    35   22   21 ar   
    36   33   21 1    
    37   23   22 ar   
@<TRIPOS>SUBSTRUCTURE
     1 AMP270      1 GROUP   
@<TRIPOS>SET

