#    Name: 2j07_HDF_1_INTS_M
#    Modification time : Tue Mar 25 19:02:37 2014

@<TRIPOS>MOLECULE
2j07_HDF_1_INTS_M
   47     0     9     0     0
SMALL
NO_CHARGES


@<TRIPOS>ATOM
      1 O          48.0170    9.3360   28.6290 O.2       1 ALC1        0.0000 
      2 O          47.2000    9.9400   29.5900 O.2       7 ALL1        0.0000 
      3 O          48.8340    8.7320   27.6680 O.2       4 ALP1        0.0000 
      4 N          48.9810    7.8605   30.4825 N.am      2 SEC2        0.0000 
      5 N          47.5440    8.0840   30.7720 N.am      8 SEL2        0.0000 
      6 N          50.4180    7.6370   30.1930 N.am      5 SEP2        0.0000 
      7 CA         44.8535    9.0470   30.3215 C.3       3 GLC5        0.0000 
      8 CA         45.8420    9.5210   31.6110 C.3       9 GLL5        0.0000 
      9 CA         43.8650    8.5730   29.0320 C.3       6 GLP5        0.0000 
     10 CA         45.9025    6.8885   33.1310 C.3       3 GLC5        0.0000 
     11 CA         45.3830    8.6920   32.6370 C.3       9 GLL5        0.0000 
     12 CA         46.4220    5.0850   33.6250 C.3       6 GLP5        0.0000 
     13 CA         44.0345    7.9305   31.9000 C.3       3 GLC5        0.0000 
     14 CA         42.6860    7.1690   31.1630 C.3       6 GLP5        0.0000 
     15 CA         45.1375    6.6825   34.0575 C.3       3 GLC5        0.0000 
     16 CA         43.8530    8.2800   34.4900 C.3       9 GLL5        0.0000 
     17 CA         42.2240    7.4900   37.0935 C.3       3 GLC5        0.0000 
     18 CA         42.8660    8.7400   35.3780 C.3       9 GLL5        0.0000 
     19 CA         41.5820    6.2400   38.8090 C.3       6 GLP5        0.0000 
     20 CA         43.1900   10.8160   30.8025 C.3       3 GLC5        0.0000 
     21 CA         43.5160   12.4410   31.7970 C.3       9 GLL5        0.0000 
     22 CA         42.8640    9.1910   29.8080 C.3       6 GLP5        0.0000 
     23 N          47.5365   15.1120   30.1565 N.am      2 SEC2        0.0000 
     24 N          46.3800   14.4870   30.8100 N.am      8 SEL2        0.0000 
     25 N          48.6930   15.7370   29.5030 N.am      5 SEP2        0.0000 
     26 CA         45.9970   18.7510   30.2440 C.3       3 GLC5        0.0000 
     27 CA         45.6020   16.8320   30.9850 C.3       9 GLL5        0.0000 
     28 CA         46.3920   20.6700   29.5030 C.3       6 GLP5        0.0000 
     29 N          47.2085   16.4730   29.5405 N.am      2 SEC2        0.0000 
     30 N          45.7240   17.2090   29.5780 N.am      8 SEL2        0.0000 
     31 N          47.0810   17.5360   29.0910 N.am      2 SEC2        0.0000 
     32 N          48.4380   17.8630   28.6040 N.am      5 SEP2        0.0000 
     33 CA         46.6893    9.8327   33.1200 C.3       3 GLC5        0.0000 
     34 CA         47.7660   10.5590   34.1160 C.3       6 GLP5        0.0000 
     35 CA         45.9057   10.1690   33.7510 C.3       3 GLC5        0.0000 
     36 CA         44.3600    9.1220   33.4990 C.3       9 GLL5        0.0000 
     37 CA         42.7611    7.5473   33.4911 C.3       3 GLC5        0.0000 
     38 CA         42.0360    6.3740   32.2960 C.3       6 GLP5        0.0000 
     39 CA         41.2815   10.3614   33.4245 C.3       3 GLC5        0.0000 
     40 CA         42.2850    9.9770   35.1650 C.3       9 GLL5        0.0000 
     41 CA         39.4490   10.2970   32.8870 C.3       6 GLP5        0.0000 
     42 CA         42.6043   13.6472   30.4275 C.3       3 GLC5        0.0000 
     43 CA         41.3060   14.2300   28.8760 C.3       6 GLP5        0.0000 
     44 CA         44.9378   14.8700   29.0305 C.3       3 GLC5        0.0000 
     45 CA         44.9650   14.4520   30.9860 C.3       9 GLL5        0.0000 
     46 CA         45.1620   14.6030   26.9720 C.3       6 GLP5        0.0000 
     47 CA         43.0097   14.6835   29.9825 C.3       3 GLC5        0.0000 
@<TRIPOS>BOND
@<TRIPOS>SUBSTRUCTURE
     1 ALC1        1 GROUP        1 X    ALC  0     ROOT ALC X 1
     2 SEC2        4 GROUP        1 X    SEC  0     **** SEC X 2
     3 GLC5        7 GROUP        1 X    GLC  0     **** GLC X 6
     4 ALP1        3 GROUP        1 Y    ALP  0     ROOT ALP Y 8
     5 SEP2        6 GROUP        1 Y    SEP  0     **** SEP Y 9
     6 GLP5        9 GROUP        1 Y    GLP  0     **** GLP Y 13
     7 ALL1        2 GROUP        1 Z    ALL  0     ROOT ALL Z 15
     8 SEL2        5 GROUP        1 Z    SEL  0     **** SEL Z 16
     9 GLL5        8 GROUP        1 Z    GLL  0     **** GLL Z 20
@<TRIPOS>SET

