#    Name: 2j07_HDF_1_ligand
#    Modification time : Tue Mar 25 19:02:37 2014

@<TRIPOS>MOLECULE
2j07_HDF_1_ligand
   43    45     1     0     0
SMALL
NO_CHARGES


@<TRIPOS>ATOM
      1 N1         45.6340   11.5660   30.3170 N.2       1 HDF1422     0.0000 
      2 C2         46.5910   11.1350   29.4450 C.2       1 HDF1422     0.0000 
      3 O2         46.9120   11.8810   28.4760 O.2       1 HDF1422     0.0000 
      4 N3         47.2000    9.9400   29.5900 N.am      1 HDF1422     0.0000 
      5 C4         46.9110    9.1310   30.6280 C.2       1 HDF1422     0.0000 
      6 O4         47.5440    8.0840   30.7720 O.2       1 HDF1422     0.0000 
      7 C4A        45.8420    9.5210   31.6110 C.2       1 HDF1422     0.0000 
      8 C5         45.3830    8.6920   32.6370 C.2       1 HDF1422     0.0000 
      9 C5A        44.3600    9.1220   33.4990 C.ar      1 HDF1422     0.0000 
     10 C6         43.8530    8.2800   34.4900 C.ar      1 HDF1422     0.0000 
     11 C7         42.8660    8.7400   35.3780 C.ar      1 HDF1422     0.0000 
     12 C8         42.2850    9.9770   35.1650 C.ar      1 HDF1422     0.0000 
     13 O8         41.2350   10.3350   35.9500 O.3       1 HDF1422     0.0000 
     14 C9         42.7090   10.8540   34.1370 C.ar      1 HDF1422     0.0000 
     15 C9A        43.7310   10.4360   33.2730 C.ar      1 HDF1422     0.0000 
     16 N10        44.2750   11.3030   32.2900 N.pl3     1 HDF1422     0.0000 
     17 C10        45.2230   10.8090   31.3700 C.2       1 HDF1422     0.0000 
     18 C1'        43.5160   12.4410   31.7970 C.3       1 HDF1422     0.0000 
     19 C2'        44.2890   13.6880   32.1610 C.3       1 HDF1422     0.0000 
     20 O2'        44.8280   13.6470   33.4920 O.3       1 HDF1422     0.0000 
     21 C3'        44.9650   14.4520   30.9860 C.3       1 HDF1422     0.0000 
     22 O3'        46.3800   14.4870   30.8100 O.3       1 HDF1422     0.0000 
     23 C4'        44.4620   15.8220   31.1920 C.3       1 HDF1422     0.0000 
     24 O4'        43.7970   15.6420   32.4930 O.3       1 HDF1422     0.0000 
     25 C5'        45.6020   16.8320   30.9850 C.3       1 HDF1422     0.0000 
     26 O5'        45.7240   17.2090   29.5780 O.3       1 HDF1422     0.0000 
     27 H          47.9123    9.6354   28.8805 H         1 HDF1422     0.0000 
     28 H          45.7948    7.7582   32.7658 H         1 HDF1422     0.0000 
     29 H          44.2012    7.3164   34.5742 H         1 HDF1422     0.0000 
     30 H          42.5867    8.1582   36.1714 H         1 HDF1422     0.0000 
     31 H          42.2778   11.7650   34.0332 H         1 HDF1422     0.0000 
     32 H          42.5369   12.4888   32.2608 H         1 HDF1422     0.0000 
     33 H          43.4057   12.4003   30.7189 H         1 HDF1422     0.0000 
     34 H          43.2903   14.4559   32.3405 H         1 HDF1422     0.0000 
     35 H          44.4458   14.0971   30.0656 H         1 HDF1422     0.0000 
     36 H          43.6940   15.9722   30.4213 H         1 HDF1422     0.0000 
     37 H          46.5295   16.3742   31.3503 H         1 HDF1422     0.0000 
     38 H          45.3936   17.7094   31.6095 H         1 HDF1422     0.0000 
     39 H          41.0606   11.2941   35.7272 H         1 HDF1422     0.0000 
     40 H          44.2041   13.0581   34.0057 H         1 HDF1422     0.0000 
     41 H          46.6559   13.5283   30.7414 H         1 HDF1422     0.0000 
     42 H          44.4905   15.2285   33.0830 H         1 HDF1422     0.0000 
     43 H          44.8633   17.6678   29.3576 H         1 HDF1422     0.0000 
@<TRIPOS>BOND
     1    2    1 1    
     2   17    1 2    
     3    3    2 2    
     4    4    2 am   
     5    5    4 am   
     6   27    4 1    
     7    6    5 2    
     8    7    5 1    
     9    8    7 2    
    10   17    7 1    
    11    9    8 1    
    12   28    8 1    
    13   10    9 ar   
    14   15    9 ar   
    15   11   10 ar   
    16   29   10 1    
    17   12   11 ar   
    18   30   11 1    
    19   13   12 1    
    20   14   12 ar   
    21   39   13 1    
    22   15   14 ar   
    23   31   14 1    
    24   16   15 1    
    25   17   16 1    
    26   18   16 1    
    27   19   18 1    
    28   32   18 1    
    29   33   18 1    
    30   20   19 1    
    31   21   19 1    
    32   34   19 1    
    33   40   20 1    
    34   22   21 1    
    35   23   21 1    
    36   35   21 1    
    37   41   22 1    
    38   24   23 1    
    39   25   23 1    
    40   36   23 1    
    41   42   24 1    
    42   26   25 1    
    43   37   25 1    
    44   38   25 1    
    45   43   26 1    
@<TRIPOS>SUBSTRUCTURE
     1 HDF1422     1 GROUP   
@<TRIPOS>SET

