#    Name: 3r2b_05B_2_INTS_M
#    Modification time : Tue Mar 25 10:29:16 2014

@<TRIPOS>MOLECULE
3r2b_05B_2_INTS_M
   76     0     9     0     0
SMALL
NO_CHARGES


@<TRIPOS>ATOM
      1 CA        -24.7400  -36.8760   -5.9115 C.3       3 GLC5        0.0000 
      2 CA        -25.7360  -35.8760   -7.6490 C.3       9 GLL5        0.0000 
      3 CA        -23.7440  -37.8760   -4.1740 C.3       6 GLP5        0.0000 
      4 O         -25.1820  -33.7420   -6.7550 O.2       1 ALC1        0.0000 
      5 O         -26.3350  -34.5600   -7.4340 O.2       7 ALL1        0.0000 
      6 O         -24.0290  -32.9240   -6.0760 O.2       4 ALP1        0.0000 
      7 CA        -24.7415  -33.9920  -10.8460 C.3       3 GLC5        0.0000 
      8 CA        -24.2860  -35.6980   -9.7320 C.3       9 GLL5        0.0000 
      9 CA        -25.1970  -32.2860  -11.9600 C.3       6 GLP5        0.0000 
     10 CA        -24.9035  -39.7095   -7.0000 C.3       3 GLC5        0.0000 
     11 CA        -24.2830  -38.4130   -8.5430 C.3       9 GLL5        0.0000 
     12 CA        -25.5240  -41.0060   -5.4570 C.3       6 GLP5        0.0000 
     13 CA        -24.0135  -38.1445   -6.3585 C.3       3 GLC5        0.0000 
     14 CA        -21.0785  -36.4890  -10.1840 C.3       3 GLC5        0.0000 
     15 CA        -22.9910  -36.3290   -9.1930 C.3       9 GLL5        0.0000 
     16 CA        -19.1660  -36.6490  -11.1750 C.3       6 GLP5        0.0000 
     17 N         -27.9365  -32.4445   -6.4500 N.am      2 SEC2        0.0000 
     18 N         -27.6640  -32.8600   -8.0910 N.am      8 SEL2        0.0000 
     19 N         -28.2090  -32.0290   -4.8090 N.am      5 SEP2        0.0000 
     20 CA        -30.2925  -33.2595  -10.3855 C.3       3 GLC5        0.0000 
     21 CA        -28.5160  -34.5100  -10.4700 C.3       9 GLL5        0.0000 
     22 CA        -32.0690  -32.0090  -10.3010 C.3       6 GLP5        0.0000 
     23 CA        -27.4245  -32.8960  -11.3085 C.3       3 GLC5        0.0000 
     24 CA        -26.3330  -31.2820  -12.1470 C.3       6 GLP5        0.0000 
     25 CA        -30.2870  -36.8595  -11.1220 C.3       3 GLC5        0.0000 
     26 CA        -29.1770  -35.7140  -12.6040 C.3       9 GLL5        0.0000 
     27 CA        -31.3970  -38.0050   -9.6400 C.3       6 GLP5        0.0000 
     28 CA        -30.5845  -32.8975  -12.1425 C.3       3 GLC5        0.0000 
     29 CA        -30.1810  -34.8230  -13.0060 C.3       9 GLL5        0.0000 
     30 CA        -30.9880  -30.9720  -11.2790 C.3       6 GLP5        0.0000 
     31 CA        -32.3300  -35.4735  -15.7245 C.3       3 GLC5        0.0000 
     32 CA        -30.9040  -35.1310  -14.1450 C.3       9 GLL5        0.0000 
     33 CA        -33.7560  -35.8160  -17.3040 C.3       6 GLP5        0.0000 
     34 CA        -30.2865  -34.2310  -15.8245 C.3       3 GLC5        0.0000 
     35 CA        -29.6690  -33.3310  -17.5040 C.3       6 GLP5        0.0000 
     36 N         -31.0060  -36.0475  -16.2815 N.am      2 SEC2        0.0000 
     37 N         -30.6370  -36.2460  -14.8150 N.am      8 SEL2        0.0000 
     38 N         -31.3750  -35.8490  -17.7480 N.am      5 SEP2        0.0000 
     39 CA        -31.6390  -36.8905  -13.5625 C.3       3 GLC5        0.0000 
     40 CA        -29.6800  -37.0750  -14.4060 C.3       9 GLL5        0.0000 
     41 CA        -33.5980  -36.7060  -12.7190 C.3       6 GLP5        0.0000 
     42 CA        -29.4310  -35.9170  -16.0970 C.3       3 GLC5        0.0000 
     43 CA        -29.1820  -34.7590  -17.7880 C.3       6 GLP5        0.0000 
     44 CA        -29.7320  -39.9290  -13.7800 C.3       3 GLC5        0.0000 
     45 CA        -29.3820  -38.3150  -15.1600 C.3       9 GLL5        0.0000 
     46 CA        -30.0820  -41.5430  -12.4000 C.3       6 GLP5        0.0000 
     47 CA        -29.7665  -37.0055  -16.8390 C.3       3 GLC5        0.0000 
     48 CA        -30.1510  -35.6960  -18.5180 C.3       6 GLP5        0.0000 
     49 CA        -25.5915  -40.6380  -18.1755 C.3       3 GLC5        0.0000 
     50 CA        -26.8390  -41.7370  -16.7890 C.3       9 GLL5        0.0000 
     51 CA        -24.3440  -39.5390  -19.5620 C.3       6 GLP5        0.0000 
     52 CA        -25.7403  -39.8295   -8.9872 C.3       3 GLC5        0.0000 
     53 CA        -25.5260  -37.8330   -9.2240 C.3       9 GLL5        0.0000 
     54 CA        -26.5760  -41.5360   -9.0910 C.3       6 GLP5        0.0000 
     55 CA        -27.6554  -37.0630   -8.3904 C.3       3 GLC5        0.0000 
     56 CA        -29.7230  -37.1660   -7.9770 C.3       6 GLP5        0.0000 
     57 CA        -26.1615  -33.7687  -10.8407 C.3       3 GLC5        0.0000 
     58 CA        -27.5040  -34.6990   -9.5270 C.3       9 GLL5        0.0000 
     59 CA        -32.0703  -35.8415  -13.1472 C.3       3 GLC5        0.0000 
     60 CA        -27.8124  -35.4291  -13.6193 C.3       3 GLC5        0.0000 
     61 CA        -26.1520  -35.6470  -14.7330 C.3       6 GLP5        0.0000 
     62 CA        -31.9615  -39.1670  -16.7567 C.3       3 GLC5        0.0000 
     63 CA        -30.1020  -40.2950  -16.3300 C.3       9 GLL5        0.0000 
     64 CA        -33.6670  -38.6160  -17.5340 C.3       6 GLP5        0.0000 
     65 CA        -29.9870  -39.4815  -17.9108 C.3       3 GLC5        0.0000 
     66 CA        -30.4100  -39.1410  -15.6290 C.3       9 GLL5        0.0000 
     67 CA        -29.7180  -39.2450  -19.8420 C.3       6 GLP5        0.0000 
     68 CA        -27.4710  -36.9137  -14.9125 C.3       3 GLC5        0.0000 
     69 CA        -28.0490  -38.6660  -15.4010 C.3       9 GLL5        0.0000 
     70 CA        -28.9890  -39.7365  -18.0885 C.3       3 GLC5        0.0000 
     71 CA        -27.7450  -39.8170  -16.1020 C.3       9 GLL5        0.0000 
     72 CA        -30.3848  -41.1382  -14.7429 C.3       3 GLC5        0.0000 
     73 CA        -28.7750  -40.6390  -16.5680 C.3       9 GLL5        0.0000 
     74 CA        -31.2540  -42.0980  -13.2120 C.3       6 GLP5        0.0000 
     75 CA        -28.7515  -36.1452   -9.1534 C.3       3 GLC5        0.0000 
     76 CA        -26.7480  -35.8040   -9.9160 C.3       9 GLL5        0.0000 
@<TRIPOS>BOND
@<TRIPOS>SUBSTRUCTURE
     1 ALC1        4 GROUP        1 X    ALC  0     ROOT ALC X 1
     2 SEC2       17 GROUP        1 X    SEC  0     **** SEC X 2
     3 GLC5        1 GROUP        1 X    GLC  0     **** GLC X 6
     4 ALP1        6 GROUP        1 Y    ALP  0     ROOT ALP Y 8
     5 SEP2       19 GROUP        1 Y    SEP  0     **** SEP Y 9
     6 GLP5        3 GROUP        1 Y    GLP  0     **** GLP Y 13
     7 ALL1        5 GROUP        1 Z    ALL  0     ROOT ALL Z 15
     8 SEL2       18 GROUP        1 Z    SEL  0     **** SEL Z 16
     9 GLL5        2 GROUP        1 Z    GLL  0     **** GLL Z 20
@<TRIPOS>SET

