#    Name: 3r2b_05B_2_ligand
#    Modification time : Tue Mar 25 10:29:17 2014

@<TRIPOS>MOLECULE
3r2b_05B_2_ligand
   50    55     1     0     0
SMALL
NO_CHARGES


@<TRIPOS>ATOM
      1 C1        -25.5630  -36.2980   -9.1180 C.3       1 05B1000     0.0000 
      2 C2        -25.7360  -35.8760   -7.6490 C.3       1 05B1000     0.0000 
      3 N3        -26.3350  -34.5600   -7.4340 N.am      1 05B1000     0.0000 
      4 C4        -27.1830  -33.9570   -8.3020 C.2       1 05B1000     0.0000 
      5 N5        -23.0950  -37.7920   -9.1330 N.4       1 05B1000     0.0000 
      6 C6        -24.2860  -35.6980   -9.7320 C.3       1 05B1000     0.0000 
      7 C7        -25.5260  -37.8330   -9.2240 C.3       1 05B1000     0.0000 
      8 C8        -24.2830  -38.4130   -8.5430 C.3       1 05B1000     0.0000 
      9 C9        -22.9910  -36.3290   -9.1930 C.3       1 05B1000     0.0000 
     10 O10       -27.6640  -32.8600   -8.0910 O.2       1 05B1000     0.0000 
     11 C11       -26.7480  -35.8040   -9.9160 C.2       1 05B1000     0.0000 
     12 C12       -27.5040  -34.6990   -9.5270 C.2       1 05B1000     0.0000 
     13 C13       -28.5160  -34.5100  -10.4700 C.2       1 05B1000     0.0000 
     14 C14       -28.3520  -35.4850  -11.4060 C.2       1 05B1000     0.0000 
     15 N15       -27.2730  -36.2610  -11.0490 N.pl3     1 05B1000     0.0000 
     16 C16       -29.1770  -35.7140  -12.6040 C.ar      1 05B1000     0.0000 
     17 C17       -30.1810  -34.8230  -13.0060 C.ar      1 05B1000     0.0000 
     18 C18       -30.9040  -35.1310  -14.1450 C.ar      1 05B1000     0.0000 
     19 N19       -30.6370  -36.2460  -14.8150 N.ar      1 05B1000     0.0000 
     20 C20       -29.6800  -37.0750  -14.4060 C.ar      1 05B1000     0.0000 
     21 N21       -28.9640  -36.8150  -13.3250 N.ar      1 05B1000     0.0000 
     22 C22       -29.3820  -38.3150  -15.1600 C.ar      1 05B1000     0.0000 
     23 C23       -30.4100  -39.1410  -15.6290 C.ar      1 05B1000     0.0000 
     24 C24       -30.1020  -40.2950  -16.3300 C.ar      1 05B1000     0.0000 
     25 C25       -28.0490  -38.6660  -15.4010 C.ar      1 05B1000     0.0000 
     26 C26       -27.7450  -39.8170  -16.1020 C.ar      1 05B1000     0.0000 
     27 C27       -28.7750  -40.6390  -16.5680 C.ar      1 05B1000     0.0000 
     28 O28       -28.2130  -41.7000  -17.2200 O.3       1 05B1000     0.0000 
     29 C29       -26.8390  -41.7370  -16.7890 C.3       1 05B1000     0.0000 
     30 O30       -26.5450  -40.3620  -16.4590 O.3       1 05B1000     0.0000 
     31 H         -24.7307  -35.9292   -7.1660 H         1 05B1000     0.0000 
     32 H         -26.3421  -36.6662   -7.1440 H         1 05B1000     0.0000 
     33 H         -26.0632  -34.0845   -6.5336 H         1 05B1000     0.0000 
     34 H         -24.2673  -34.6190   -9.5292 H         1 05B1000     0.0000 
     35 H         -24.3195  -35.8302  -10.8216 H         1 05B1000     0.0000 
     36 H         -25.5248  -38.1158  -10.2767 H         1 05B1000     0.0000 
     37 H         -26.4192  -38.2426   -8.7522 H         1 05B1000     0.0000 
     38 H         -24.3460  -38.2029   -7.4790 H         1 05B1000     0.0000 
     39 H         -24.2788  -39.4884   -8.6967 H         1 05B1000     0.0000 
     40 H         -22.1668  -36.0236   -9.8489 H         1 05B1000     0.0000 
     41 H         -22.7992  -35.9110   -8.1974 H         1 05B1000     0.0000 
     42 H         -29.1715  -33.8361  -10.4449 H         1 05B1000     0.0000 
     43 H         -26.9618  -37.0240  -11.5658 H         1 05B1000     0.0000 
     44 H         -30.3657  -33.9809  -12.4733 H         1 05B1000     0.0000 
     45 H         -31.6483  -34.4756  -14.4543 H         1 05B1000     0.0000 
     46 H         -31.3885  -38.8861  -15.4503 H         1 05B1000     0.0000 
     47 H         -30.8577  -40.9041  -16.6784 H         1 05B1000     0.0000 
     48 H         -27.2948  -38.0567  -15.0500 H         1 05B1000     0.0000 
     49 H         -26.1972  -42.0817  -17.5862 H         1 05B1000     0.0000 
     50 H         -26.7276  -42.3682  -15.9199 H         1 05B1000     0.0000 
@<TRIPOS>BOND
     1    2    1 1    
     2    6    1 1    
     3    7    1 1    
     4   11    1 1    
     5    3    2 1    
     6   31    2 1    
     7   32    2 1    
     8    4    3 am   
     9   33    3 1    
    10   10    4 2    
    11   12    4 1    
    12    8    5 1    
    13    9    5 1    
    14    9    6 1    
    15   34    6 1    
    16   35    6 1    
    17    8    7 1    
    18   36    7 1    
    19   37    7 1    
    20   38    8 1    
    21   39    8 1    
    22   40    9 1    
    23   41    9 1    
    24   12   11 2    
    25   15   11 1    
    26   13   12 1    
    27   14   13 2    
    28   42   13 1    
    29   15   14 1    
    30   16   14 1    
    31   43   15 1    
    32   17   16 ar   
    33   21   16 ar   
    34   18   17 ar   
    35   44   17 1    
    36   19   18 ar   
    37   45   18 1    
    38   20   19 ar   
    39   21   20 ar   
    40   22   20 1    
    41   23   22 ar   
    42   25   22 ar   
    43   24   23 ar   
    44   46   23 1    
    45   27   24 ar   
    46   47   24 1    
    47   26   25 ar   
    48   48   25 1    
    49   27   26 ar   
    50   30   26 1    
    51   28   27 1    
    52   29   28 1    
    53   30   29 1    
    54   49   29 1    
    55   50   29 1    
@<TRIPOS>SUBSTRUCTURE
     1 05B1000     1 GROUP   
@<TRIPOS>SET

