#    Name: 1e0j_ANP_1_INTS_M
#    Modification time : Mon Mar 24 22:37:06 2014

@<TRIPOS>MOLECULE
1e0j_ANP_1_INTS_M
   54     0    15     0     0
SMALL
NO_CHARGES


@<TRIPOS>ATOM
      1 NZ         58.2675   95.8230  153.6875 N.4       3 LYC4        0.0000 
      2 NZ         58.2100   95.3650  154.9900 N.4      13 LYL4        0.0000 
      3 NZ         58.3250   96.2810  152.3850 N.4       8 LYP4        0.0000 
      4 N          59.7855   95.7590  155.0655 N.am      2 SEC2        0.0000 
      5 N          58.2100   95.3650  154.9900 N.am     12 SEL2        0.0000 
      6 N          61.3610   96.1530  155.1410 N.am      7 SEP2        0.0000 
      7 N          58.2675   95.8230  153.6875 N.am      2 SEC2        0.0000 
      8 N          58.3250   96.2810  152.3850 N.am      7 SEP2        0.0000 
      9 Zn         55.3985   96.5015  156.2430 Zn        4 ZIC7        0.0000 
     10 Zn         55.9400   95.4490  156.1490 Zn       14 ZIL7        0.0000 
     11 Zn         54.8570   97.5540  156.3370 Zn        9 ZIP7        0.0000 
     12 NZ         57.8995   93.6925  158.5145 N.4       3 LYC4        0.0000 
     13 NZ         58.0030   94.5680  157.4140 N.4      13 LYL4        0.0000 
     14 NZ         57.7960   92.8170  159.6150 N.4       8 LYP4        0.0000 
     15 Zn         55.6510   98.2060  156.0975 Zn        4 ZIC7        0.0000 
     16 Zn         56.4450   98.8580  155.8580 Zn       14 ZIL7        0.0000 
     17 N          56.3000  100.2390  154.8375 N.am      2 SEC2        0.0000 
     18 N          56.4450   98.8580  155.8580 N.am     12 SEL2        0.0000 
     19 N          56.1550  101.6200  153.8170 N.am      7 SEP2        0.0000 
     20 NZ         58.5550   97.2535  153.6315 N.4       3 LYC4        0.0000 
     21 NZ         58.7850   98.2260  154.8780 N.4      13 LYL4        0.0000 
     22 N          60.0730   97.1895  155.0095 N.am      2 SEC2        0.0000 
     23 N          58.7850   98.2260  154.8780 N.am     12 SEL2        0.0000 
     24 N          57.3995  102.7045  155.7340 N.am      2 SEC2        0.0000 
     25 N          58.1260  101.5010  156.1370 N.am     12 SEL2        0.0000 
     26 N          56.6730  103.9080  155.3310 N.am      7 SEP2        0.0000 
     27 N          58.4370  102.9765  156.7095 N.am      2 SEC2        0.0000 
     28 N          58.7480  104.4520  157.2820 N.am      7 SEP2        0.0000 
     29 N          61.3705  104.3405  162.4315 N.am      2 SEC2        0.0000 
     30 N          60.7740  102.8830  162.0440 N.am     12 SEL2        0.0000 
     31 N          61.9670  105.7980  162.8190 N.am      7 SEP2        0.0000 
     32 O          60.7235  101.7775  163.1190 O.2       1 ALC1        0.0000 
     33 O          60.7740  102.8830  162.0440 O.2      11 ALL1        0.0000 
     34 O          60.6730  100.6720  164.1940 O.2       6 ALP1        0.0000 
     35 CA         59.6285  104.4285  157.8745 C.3       5 GLC5        0.0000 
     36 CA         60.6600  103.6450  159.6810 C.3      15 GLL5        0.0000 
     37 CA         58.5970  105.2120  156.0680 C.3      10 GLP5        0.0000 
     38 CA         63.3035  101.8190  160.0260 C.3       5 GLC5        0.0000 
     39 CA         62.1190  103.3240  159.3520 C.3      15 GLL5        0.0000 
     40 CA         64.4880  100.3140  160.7000 C.3      10 GLP5        0.0000 
     41 CA         62.2155  103.3795  155.1865 C.3       5 GLC5        0.0000 
     42 CA         63.7510  104.3740  156.2140 C.3      15 GLL5        0.0000 
     43 CA         60.6800  102.3850  154.1590 C.3      10 GLP5        0.0000 
     44 CA         65.9700  103.5485  154.4700 C.3       5 GLC5        0.0000 
     45 CA         64.9570  104.6850  155.5510 C.3      15 GLL5        0.0000 
     46 CA         66.9830  102.4120  153.3890 C.3      10 GLP5        0.0000 
     47 CA         65.7920  106.1700  157.1000 C.3       5 GLC5        0.0000 
     48 CA         66.0690  104.2420  157.6170 C.3      15 GLL5        0.0000 
     49 CA         65.5150  108.0980  156.5830 C.3      10 GLP5        0.0000 
     50 CA         62.5958  100.5797  160.2060 C.3       5 GLC5        0.0000 
     51 CA         61.1090  101.3210  160.1700 C.3      15 GLL5        0.0000 
     52 CA         61.9198  105.5592  159.5487 C.3       5 GLC5        0.0000 
     53 CA         62.4500  107.6340  159.5810 C.3      10 GLP5        0.0000 
     54 CA         64.9345  106.3137  156.2328 C.3       5 GLC5        0.0000 
@<TRIPOS>BOND
@<TRIPOS>SUBSTRUCTURE
     1 ALC1       32 GROUP        1 X    ALC  0     ROOT ALC X 1
     2 SEC2        4 GROUP        1 X    SEC  0     **** SEC X 2
     3 LYC4        1 GROUP        1 X    LYC  0     **** LYC X 4
     4 ZIC7        9 GROUP        1 X    ZIC  0     **** ZIC X 5
     5 GLC5       35 GROUP        1 X    GLC  0     **** GLC X 6
     6 ALP1       34 GROUP        1 Y    ALP  0     ROOT ALP Y 8
     7 SEP2        6 GROUP        1 Y    SEP  0     **** SEP Y 9
     8 LYP4        3 GROUP        1 Y    LYP  0     **** LYP Y 11
     9 ZIP7       11 GROUP        1 Y    ZIP  0     **** ZIP Y 12
    10 GLP5       37 GROUP        1 Y    GLP  0     **** GLP Y 13
    11 ALL1       33 GROUP        1 Z    ALL  0     ROOT ALL Z 15
    12 SEL2        5 GROUP        1 Z    SEL  0     **** SEL Z 16
    13 LYL4        2 GROUP        1 Z    LYL  0     **** LYL Z 18
    14 ZIL7       10 GROUP        1 Z    ZIL  0     **** ZIL Z 19
    15 GLL5       36 GROUP        1 Z    GLL  0     **** GLL Z 20
@<TRIPOS>SET

