#    Name: 1e0j_ANP_1_ligand
#    Modification time : Mon Mar 24 22:37:06 2014

@<TRIPOS>MOLECULE
1e0j_ANP_1_ligand
   43    45     1     0     0
SMALL
NO_CHARGES


@<TRIPOS>ATOM
      1 PG         57.4530   95.4440  156.2590 P.3       1 ANP700      0.0000 
      2 O1G        58.2100   95.3650  154.9900 O.co2     1 ANP700      0.0000 
      3 O2G        55.9400   95.4490  156.1490 O.co2     1 ANP700      0.0000 
      4 O3G        58.0030   94.5680  157.4140 O.co2     1 ANP700      0.0000 
      5 PB         57.8560   98.3040  156.0410 P.3       1 ANP700      0.0000 
      6 O1B        56.4450   98.8580  155.8580 O.co2     1 ANP700      0.0000 
      7 O2B        58.7850   98.2260  154.8780 O.co2     1 ANP700      0.0000 
      8 N3B        57.8680   96.8610  156.7460 N.4       1 ANP700      0.0000 
      9 PA         58.3380  100.7460  157.4680 P.3       1 ANP700      0.0000 
     10 O1A        58.1260  101.5010  156.1370 O.co2     1 ANP700      0.0000 
     11 O2A        57.2970  100.8490  158.5520 O.co2     1 ANP700      0.0000 
     12 O3A        58.5320   99.2020  157.1540 O.3       1 ANP700      0.0000 
     13 O5'        59.7490  101.1370  158.1350 O.3       1 ANP700      0.0000 
     14 C5'        60.2980  100.3700  159.2540 C.3       1 ANP700      0.0000 
     15 C4'        61.1090  101.3210  160.1700 C.3       1 ANP700      0.0000 
     16 O4'        62.2140  101.8840  159.3830 O.3       1 ANP700      0.0000 
     17 C3'        60.3160  102.5390  160.7000 C.3       1 ANP700      0.0000 
     18 O3'        60.7740  102.8830  162.0440 O.3       1 ANP700      0.0000 
     19 C2'        60.6600  103.6450  159.6810 C.3       1 ANP700      0.0000 
     20 O2'        60.4990  104.9760  160.1860 O.3       1 ANP700      0.0000 
     21 C1'        62.1190  103.3240  159.3520 C.3       1 ANP700      0.0000 
     22 N9         62.5540  103.7560  157.9970 N.pl3     1 ANP700      0.0000 
     23 C8         61.7490  103.9750  156.8660 C.2       1 ANP700      0.0000 
     24 N7         62.4300  104.3460  155.7820 N.2       1 ANP700      0.0000 
     25 C5         63.7510  104.3740  156.2140 C.ar      1 ANP700      0.0000 
     26 C6         64.9570  104.6850  155.5510 C.ar      1 ANP700      0.0000 
     27 N6         65.0360  105.0490  154.2190 N.pl3     1 ANP700      0.0000 
     28 N1         66.1400  104.6110  156.2990 N.ar      1 ANP700      0.0000 
     29 C2         66.0690  104.2420  157.6170 C.ar      1 ANP700      0.0000 
     30 N3         64.9840  103.9260  158.3440 N.ar      1 ANP700      0.0000 
     31 C4         63.8420  104.0120  157.5850 C.ar      1 ANP700      0.0000 
     32 H          60.9691   99.5890  158.9066 H         1 ANP700      0.0000 
     33 H          59.5085   99.9235  159.8525 H         1 ANP700      0.0000 
     34 H          61.5005  100.7746  160.9980 H         1 ANP700      0.0000 
     35 H          59.2947  102.3223  160.6388 H         1 ANP700      0.0000 
     36 H          60.0878  103.4457  158.7948 H         1 ANP700      0.0000 
     37 H          62.7466  103.7437  160.1046 H         1 ANP700      0.0000 
     38 H          60.7627  103.8539  156.9089 H         1 ANP700      0.0000 
     39 H          65.9554  105.2126  153.8613 H         1 ANP700      0.0000 
     40 H          64.1669  105.1170  153.7291 H         1 ANP700      0.0000 
     41 H          67.0353  104.2020  158.1418 H         1 ANP700      0.0000 
     42 H          60.6880  102.0374  162.5709 H         1 ANP700      0.0000 
     43 H          60.2132  104.8590  161.1371 H         1 ANP700      0.0000 
@<TRIPOS>BOND
     1    2    1 ar   
     2    3    1 ar   
     3    4    1 ar   
     4    8    1 1    
     5    6    5 ar   
     6    7    5 ar   
     7    8    5 1    
     8   12    5 1    
     9   10    9 ar   
    10   11    9 ar   
    11   12    9 1    
    12   13    9 1    
    13   14   13 1    
    14   15   14 1    
    15   32   14 1    
    16   33   14 1    
    17   16   15 1    
    18   17   15 1    
    19   34   15 1    
    20   21   16 1    
    21   18   17 1    
    22   19   17 1    
    23   35   17 1    
    24   42   18 1    
    25   20   19 1    
    26   21   19 1    
    27   36   19 1    
    28   43   20 1    
    29   22   21 1    
    30   37   21 1    
    31   23   22 1    
    32   31   22 1    
    33   24   23 2    
    34   38   23 1    
    35   25   24 1    
    36   26   25 ar   
    37   31   25 ar   
    38   27   26 1    
    39   28   26 ar   
    40   39   27 1    
    41   40   27 1    
    42   29   28 ar   
    43   30   29 ar   
    44   41   29 1    
    45   31   30 ar   
@<TRIPOS>SUBSTRUCTURE
     1 ANP700      1 GROUP   
@<TRIPOS>SET

