#    Name: 4j56_FAD_2_INTS_M
#    Modification time : Tue Mar 25 05:25:42 2014

@<TRIPOS>MOLECULE
4j56_FAD_2_INTS_M
  118     0     9     0     0
SMALL
NO_CHARGES


@<TRIPOS>ATOM
      1 N         -84.2000 -110.7160  200.8305 N.am      2 SEC2        0.0000 
      2 N         -84.7700 -110.2940  199.7890 N.am      8 SEL2        0.0000 
      3 N         -83.6300 -111.1380  201.8720 N.am      5 SEP2        0.0000 
      4 N         -83.1090 -108.5295  200.7810 N.am      2 SEC2        0.0000 
      5 N         -83.1530 -108.5700  199.2080 N.am      8 SEL2        0.0000 
      6 N         -83.0650 -108.4890  202.3540 N.am      5 SEP2        0.0000 
      7 CA        -85.5760 -106.8420  198.8475 C.3       3 GLC5        0.0000 
      8 CA        -86.9250 -108.5490  199.2980 C.3       9 GLL5        0.0000 
      9 CA        -84.2270 -105.1350  198.3970 C.3       6 GLP5        0.0000 
     10 CA        -86.8820 -110.3805  198.3200 C.3       3 GLC5        0.0000 
     11 CA        -86.8390 -112.2120  197.3420 C.3       6 GLP5        0.0000 
     12 CA        -88.9030 -106.4750  198.6375 C.3       3 GLC5        0.0000 
     13 CA        -87.8770 -107.6650  200.0300 C.3       9 GLL5        0.0000 
     14 CA        -89.9290 -105.2850  197.2450 C.3       6 GLP5        0.0000 
     15 O         -88.1560 -105.4335  201.5205 O.2       1 ALC1        0.0000 
     16 O         -87.4810 -106.5560  202.0930 O.2       7 ALL1        0.0000 
     17 O         -88.8310 -104.3110  200.9480 O.2       4 ALP1        0.0000 
     18 O         -90.7215 -107.3640  203.4850 O.2       1 ALC1        0.0000 
     19 O         -89.3930 -107.9400  203.2010 O.2       7 ALL1        0.0000 
     20 O         -92.0500 -106.7880  203.7690 O.2       4 ALP1        0.0000 
     21 CA        -89.9565 -106.5600  199.0335 C.3       3 GLC5        0.0000 
     22 CA        -89.9840 -107.8350  200.8220 C.3       9 GLL5        0.0000 
     23 CA        -89.9085 -108.8950  198.8945 C.3       3 GLC5        0.0000 
     24 CA        -89.8330 -109.9550  196.9670 C.3       6 GLP5        0.0000 
     25 CA        -96.6930 -106.6005  199.3620 C.3       3 GLC5        0.0000 
     26 CA        -94.8080 -107.5350  200.0730 C.3       9 GLL5        0.0000 
     27 CA        -98.5780 -105.6660  198.6510 C.3       6 GLP5        0.0000 
     28 O         -97.0790 -108.1050  199.0125 O.2       1 ALC1        0.0000 
     29 O         -96.0340 -108.2280  199.8540 O.2       7 ALL1        0.0000 
     30 O         -98.1240 -107.9820  198.1710 O.2       4 ALP1        0.0000 
     31 N         -96.4005 -105.9730  200.0425 N.am      2 SEC2        0.0000 
     32 N         -94.8440 -106.1890  200.1090 N.am      8 SEL2        0.0000 
     33 N         -97.9570 -105.7570  199.9760 N.am      5 SEP2        0.0000 
     34 CA        -94.0705 -106.0425  198.2395 C.3       3 GLC5        0.0000 
     35 CA        -93.7010 -105.5020  200.3140 C.3       9 GLL5        0.0000 
     36 CA        -94.4400 -106.5830  196.1650 C.3       6 GLP5        0.0000 
     37 CA        -94.2135 -103.7085  199.0930 C.3       3 GLC5        0.0000 
     38 CA        -94.7260 -101.9150  197.8720 C.3       6 GLP5        0.0000 
     39 CA        -92.6155 -104.1110  200.5985 C.3       3 GLC5        0.0000 
     40 CA        -91.5300 -102.7200  200.8830 C.3       6 GLP5        0.0000 
     41 CA        -94.0260 -105.0995  202.1190 C.3       3 GLC5        0.0000 
     42 CA        -94.3510 -104.6970  203.9240 C.3       6 GLP5        0.0000 
     43 N         -92.3995 -105.1460  201.5710 N.am      2 SEC2        0.0000 
     44 N         -92.5050 -106.1050  200.4930 N.am      8 SEL2        0.0000 
     45 N         -92.2940 -104.1870  202.6490 N.am      5 SEP2        0.0000 
     46 N         -75.1050 -110.6420  196.6190 N.am      2 SEC2        0.0000 
     47 N         -73.5910 -111.0280  197.3570 N.am      8 SEL2        0.0000 
     48 N         -76.6190 -110.2560  195.8810 N.am      5 SEP2        0.0000 
     49 O         -71.7700 -110.9200  199.2915 O.2       1 ALC1        0.0000 
     50 O         -72.8690 -111.7410  199.4760 O.2       7 ALL1        0.0000 
     51 O         -70.6710 -110.0990  199.1070 O.2       4 ALP1        0.0000 
     52 N         -73.8315 -113.8495  203.2145 N.am      2 SEC2        0.0000 
     53 N         -74.6260 -113.2770  202.2190 N.am      8 SEL2        0.0000 
     54 N         -73.0370 -114.4220  204.2100 N.am      5 SEP2        0.0000 
     55 CA        -75.1625 -111.8120  203.0350 C.3       3 GLC5        0.0000 
     56 CA        -75.8610 -113.6810  202.5650 C.3       9 GLL5        0.0000 
     57 CA        -74.4640 -109.9430  203.5050 C.3       6 GLP5        0.0000 
     58 CA        -78.7535 -115.7720  206.8925 C.3       3 GLC5        0.0000 
     59 CA        -77.4040 -115.2720  205.6470 C.3       9 GLL5        0.0000 
     60 CA        -80.1030 -116.2720  208.1380 C.3       6 GLP5        0.0000 
     61 CA        -80.8725 -116.3335  202.7110 C.3       3 GLC5        0.0000 
     62 CA        -79.7150 -115.0350  203.7620 C.3       9 GLL5        0.0000 
     63 CA        -82.0300 -117.6320  201.6600 C.3       6 GLP5        0.0000 
     64 CA        -77.0035 -112.6870  197.2750 C.3       3 GLC5        0.0000 
     65 CA        -77.7330 -112.8110  199.3700 C.3       9 GLL5        0.0000 
     66 CA        -76.2740 -112.5630  195.1800 C.3       6 GLP5        0.0000 
     67 CA        -78.5120 -109.5440  200.1080 C.3       3 GLC5        0.0000 
     68 CA        -78.5560 -111.5410  199.4360 C.3       9 GLL5        0.0000 
     69 CA        -78.4680 -107.5470  200.7800 C.3       6 GLP5        0.0000 
     70 CA        -77.0950 -110.2550  200.2620 C.3       3 GLC5        0.0000 
     71 CA        -75.6340 -108.9690  201.0880 C.3       6 GLP5        0.0000 
     72 O         -80.4385 -113.0105  196.6045 O.2       1 ALC1        0.0000 
     73 O         -79.3630 -112.1850  197.3470 O.2       7 ALL1        0.0000 
     74 O         -81.5140 -113.8360  195.8620 O.2       4 ALP1        0.0000 
     75 O         -80.8290 -113.0560  197.6405 O.2       1 ALC1        0.0000 
     76 O         -82.2950 -113.9270  197.9340 O.2       4 ALP1        0.0000 
     77 CA        -79.3455 -108.8495  199.4315 C.3       3 GLC5        0.0000 
     78 CA        -80.2230 -110.1520  198.0830 C.3       9 GLL5        0.0000 
     79 N         -80.5280 -109.0225  200.6420 N.am      2 SEC2        0.0000 
     80 N         -80.8210 -109.4730  199.1500 N.am      8 SEL2        0.0000 
     81 N         -80.2350 -108.5720  202.1340 N.am      5 SEP2        0.0000 
     82 CA        -81.0005 -109.5475  194.9220 C.3       3 GLC5        0.0000 
     83 CA        -81.1760 -110.2390  196.9170 C.3       9 GLL5        0.0000 
     84 CA        -80.8250 -108.8560  192.9270 C.3       6 GLP5        0.0000 
     85 N         -83.2470 -106.8385  194.9205 N.am      2 SEC2        0.0000 
     86 N         -83.9370 -107.9630  195.5190 N.am      8 SEL2        0.0000 
     87 N         -82.5570 -105.7140  194.3220 N.am      5 SEP2        0.0000 
     88 N         -83.6440 -111.5975  194.4935 N.am      2 SEC2        0.0000 
     89 N         -83.5620 -110.3360  195.0170 N.am      8 SEL2        0.0000 
     90 N         -83.7260 -112.8590  193.9700 N.am      5 SEP2        0.0000 
     91 CA        -88.6170 -109.0310  198.3155 C.3       3 GLC5        0.0000 
     92 CA        -85.9153 -107.1860  201.3067 C.3       3 GLC5        0.0000 
     93 CA        -84.2270 -106.3970  202.0340 C.3       6 GLP5        0.0000 
     94 CA        -94.3157 -107.2335  198.1620 C.3       3 GLC5        0.0000 
     95 CA        -93.5750 -108.2330  200.2450 C.3       9 GLL5        0.0000 
     96 CA        -95.6497 -107.8260  201.5475 C.3       3 GLC5        0.0000 
     97 CA        -97.1080 -107.7680  202.9360 C.3       6 GLP5        0.0000 
     98 CA        -92.8206 -108.6135  198.6435 C.3       3 GLC5        0.0000 
     99 CA        -92.4070 -107.4680  200.4610 C.3       9 GLL5        0.0000 
    100 CA        -92.3420 -109.5510  196.9770 C.3       6 GLP5        0.0000 
    101 CA        -73.9870 -113.6575  203.8550 C.3       3 GLC5        0.0000 
    102 CA        -76.0270 -114.2390  203.8450 C.3       9 GLL5        0.0000 
    103 CA        -72.0300 -113.3550  204.5050 C.3       6 GLP5        0.0000 
    104 CA        -77.5048 -113.1112  205.0250 C.3       3 GLC5        0.0000 
    105 CA        -77.2650 -114.6990  204.2650 C.3       9 GLL5        0.0000 
    106 CA        -77.6750 -111.2370  205.0940 C.3       6 GLP5        0.0000 
    107 CA        -76.8840 -116.5378  204.4020 C.3       3 GLC5        0.0000 
    108 CA        -76.7430 -118.2050  203.9530 C.3       6 GLP5        0.0000 
    109 CA        -77.8860 -116.5083  203.7632 C.3       3 GLC5        0.0000 
    110 CA        -78.3430 -114.5880  203.3850 C.3       9 GLL5        0.0000 
    111 CA        -80.1565 -113.1826  202.9634 C.3       3 GLC5        0.0000 
    112 CA        -81.7130 -111.9490  203.0850 C.3       6 GLP5        0.0000 
    113 CA        -80.4112 -108.3088  197.5340 C.3       3 GLC5        0.0000 
    114 CA        -80.1230 -106.4220  197.5680 C.3       6 GLP5        0.0000 
    115 CA        -78.8868 -109.5373  196.6080 C.3       3 GLC5        0.0000 
    116 CA        -77.0740 -108.8790  195.7160 C.3       6 GLP5        0.0000 
    117 CA        -77.5106 -112.6333  203.8427 C.3       3 GLC5        0.0000 
    118 CA        -76.9270 -113.5490  201.6660 C.3       9 GLL5        0.0000 
@<TRIPOS>BOND
@<TRIPOS>SUBSTRUCTURE
     1 ALC1       15 GROUP        1 X    ALC  0     ROOT ALC X 1
     2 SEC2        1 GROUP        1 X    SEC  0     **** SEC X 2
     3 GLC5        7 GROUP        1 X    GLC  0     **** GLC X 6
     4 ALP1       17 GROUP        1 Y    ALP  0     ROOT ALP Y 8
     5 SEP2        3 GROUP        1 Y    SEP  0     **** SEP Y 9
     6 GLP5        9 GROUP        1 Y    GLP  0     **** GLP Y 13
     7 ALL1       16 GROUP        1 Z    ALL  0     ROOT ALL Z 15
     8 SEL2        2 GROUP        1 Z    SEL  0     **** SEL Z 16
     9 GLL5        8 GROUP        1 Z    GLL  0     **** GLL Z 20
@<TRIPOS>SET

