#    Name: 4j56_FAD_2_ligand
#    Modification time : Tue Mar 25 05:25:42 2014

@<TRIPOS>MOLECULE
4j56_FAD_2_ligand
   84    89     1     0     0
SMALL
NO_CHARGES


@<TRIPOS>ATOM
      1 PA        -84.4730 -109.1750  198.7930 P.3       1 FAD600      0.0000 
      2 O1A       -84.7700 -110.2940  199.7890 O.co2     1 FAD600      0.0000 
      3 O2A       -83.1530 -108.5700  199.2080 O.co2     1 FAD600      0.0000 
      4 O5B       -85.6790 -108.1160  198.8440 O.3       1 FAD600      0.0000 
      5 C5B       -86.9250 -108.5490  199.2980 C.3       1 FAD600      0.0000 
      6 C4B       -87.8770 -107.6650  200.0300 C.3       1 FAD600      0.0000 
      7 O4B       -89.1880 -108.0180  199.6780 O.3       1 FAD600      0.0000 
      8 C3B       -87.8060 -107.8430  201.4950 C.3       1 FAD600      0.0000 
      9 O3B       -87.4810 -106.5560  202.0930 O.3       1 FAD600      0.0000 
     10 C2B       -89.0380 -108.3500  201.8910 C.3       1 FAD600      0.0000 
     11 O2B       -89.3930 -107.9400  203.2010 O.3       1 FAD600      0.0000 
     12 C1B       -89.9840 -107.8350  200.8220 C.3       1 FAD600      0.0000 
     13 N9A       -91.3790 -108.3550  200.6170 N.pl3     1 FAD600      0.0000 
     14 C8A       -91.8710 -109.6100  200.4810 C.2       1 FAD600      0.0000 
     15 N7A       -93.2040 -109.5500  200.2670 N.2       1 FAD600      0.0000 
     16 C5A       -93.5750 -108.2330  200.2450 C.ar      1 FAD600      0.0000 
     17 C6A       -94.8080 -107.5350  200.0730 C.ar      1 FAD600      0.0000 
     18 N6A       -96.0340 -108.2280  199.8540 N.pl3     1 FAD600      0.0000 
     19 N1A       -94.8440 -106.1890  200.1090 N.ar      1 FAD600      0.0000 
     20 C2A       -93.7010 -105.5020  200.3140 C.ar      1 FAD600      0.0000 
     21 N3A       -92.5050 -106.1050  200.4930 N.ar      1 FAD600      0.0000 
     22 C4A       -92.4070 -107.4680  200.4610 C.ar      1 FAD600      0.0000 
     23 N1        -75.1250 -112.0200  198.8910 N.2       1 FAD600      0.0000 
     24 C2        -73.8740 -111.6110  198.6000 C.2       1 FAD600      0.0000 
     25 O2        -73.5910 -111.0280  197.3570 O.2       1 FAD600      0.0000 
     26 N3        -72.8690 -111.7410  199.4760 N.am      1 FAD600      0.0000 
     27 C4        -73.0970 -112.2870  200.6720 C.2       1 FAD600      0.0000 
     28 O4        -72.0400 -112.4050  201.5660 O.2       1 FAD600      0.0000 
     29 C4X       -74.3900 -112.7300  201.0110 C.2       1 FAD600      0.0000 
     30 N5        -74.6260 -113.2770  202.2190 N.2       1 FAD600      0.0000 
     31 C5X       -75.8610 -113.6810  202.5650 C.ar      1 FAD600      0.0000 
     32 C6        -76.0270 -114.2390  203.8450 C.ar      1 FAD600      0.0000 
     33 C7        -77.2650 -114.6990  204.2650 C.ar      1 FAD600      0.0000 
     34 C7M       -77.4040 -115.2720  205.6470 C.3       1 FAD600      0.0000 
     35 C8        -78.3430 -114.5880  203.3850 C.ar      1 FAD600      0.0000 
     36 C8M       -79.7150 -115.0350  203.7620 C.3       1 FAD600      0.0000 
     37 C9        -78.1710 -114.0210  202.1100 C.ar      1 FAD600      0.0000 
     38 C9A       -76.9270 -113.5490  201.6660 C.ar      1 FAD600      0.0000 
     39 N10       -76.7000 -112.9970  200.4140 N.pl3     1 FAD600      0.0000 
     40 C10       -75.4320 -112.5840  200.0940 C.2       1 FAD600      0.0000 
     41 C1'       -77.7330 -112.8110  199.3700 C.3       1 FAD600      0.0000 
     42 C2'       -78.5560 -111.5410  199.4360 C.3       1 FAD600      0.0000 
     43 O2'       -78.9850 -111.4130  200.7600 O.3       1 FAD600      0.0000 
     44 C3'       -79.7430 -111.5280  198.4900 C.3       1 FAD600      0.0000 
     45 O3'       -79.3630 -112.1850  197.3470 O.3       1 FAD600      0.0000 
     46 C4'       -80.2230 -110.1520  198.0830 C.3       1 FAD600      0.0000 
     47 O4'       -80.8210 -109.4730  199.1500 O.3       1 FAD600      0.0000 
     48 C5'       -81.1760 -110.2390  196.9170 C.3       1 FAD600      0.0000 
     49 O5'       -81.9250 -109.1250  196.5680 O.3       1 FAD600      0.0000 
     50 P         -83.4490 -109.2740  196.1050 P.3       1 FAD600      0.0000 
     51 O1P       -83.9370 -107.9630  195.5190 O.co2     1 FAD600      0.0000 
     52 O2P       -83.5620 -110.3360  195.0170 O.co2     1 FAD600      0.0000 
     53 O3P       -84.3410 -109.7900  197.3290 O.3       1 FAD600      0.0000 
     54 H         -86.7956 -109.4998  199.9553 H         1 FAD600      0.0000 
     55 H         -87.5259 -109.0119  198.4163 H         1 FAD600      0.0000 
     56 H         -87.6809 -106.6383  199.7870 H         1 FAD600      0.0000 
     57 H         -87.0039 -108.5506  201.6932 H         1 FAD600      0.0000 
     58 H         -89.0368 -109.4372  201.7959 H         1 FAD600      0.0000 
     59 H         -90.0329 -106.7176  200.9795 H         1 FAD600      0.0000 
     60 H         -91.3457 -110.4250  200.5300 H         1 FAD600      0.0000 
     61 H         -96.5196 -108.0067  199.0083 H         1 FAD600      0.0000 
     62 H         -96.3055 -108.8772  200.5645 H         1 FAD600      0.0000 
     63 H         -93.7421 -104.4417  200.3358 H         1 FAD600      0.0000 
     64 H         -71.9094 -111.4148  199.2211 H         1 FAD600      0.0000 
     65 H         -75.2103 -114.3029  204.4737 H         1 FAD600      0.0000 
     66 H         -78.9920 -113.9500  201.4779 H         1 FAD600      0.0000 
     67 H         -78.4387 -113.6838  199.3845 H         1 FAD600      0.0000 
     68 H         -77.2522 -112.8615  198.3569 H         1 FAD600      0.0000 
     69 H         -77.8969 -110.7097  199.1720 H         1 FAD600      0.0000 
     70 H         -80.5680 -112.0474  198.9754 H         1 FAD600      0.0000 
     71 H         -79.3347 -109.5954  197.7250 H         1 FAD600      0.0000 
     72 H         -81.8523 -111.1397  197.1216 H         1 FAD600      0.0000 
     73 H         -80.5614 -110.6145  196.0272 H         1 FAD600      0.0000 
     74 H         -76.8150 -116.0692  205.7795 H         1 FAD600      0.0000 
     75 H         -77.1588 -114.6061  206.3516 H         1 FAD600      0.0000 
     76 H         -78.3413 -115.5657  205.8348 H         1 FAD600      0.0000 
     77 H         -79.7391 -116.0085  203.9893 H         1 FAD600      0.0000 
     78 H         -80.0613 -114.5394  204.5585 H         1 FAD600      0.0000 
     79 H         -80.3696 -114.8910  203.0198 H         1 FAD600      0.0000 
     80 H         -87.9994 -105.8857  201.5619 H         1 FAD600      0.0000 
     81 H         -90.3872 -108.0393  203.2426 H         1 FAD600      0.0000 
     82 H         -79.7086 -110.7234  200.7320 H         1 FAD600      0.0000 
     83 H         -80.1987 -112.6157  197.0062 H         1 FAD600      0.0000 
     84 H         -81.7316 -109.2239  198.8203 H         1 FAD600      0.0000 
@<TRIPOS>BOND
     1    2    1 ar   
     2    3    1 ar   
     3    4    1 1    
     4   53    1 1    
     5    5    4 1    
     6    6    5 1    
     7   54    5 1    
     8   55    5 1    
     9    7    6 1    
    10    8    6 1    
    11   56    6 1    
    12   12    7 1    
    13    9    8 1    
    14   10    8 1    
    15   57    8 1    
    16   80    9 1    
    17   11   10 1    
    18   12   10 1    
    19   58   10 1    
    20   81   11 1    
    21   13   12 1    
    22   59   12 1    
    23   14   13 1    
    24   22   13 1    
    25   15   14 2    
    26   60   14 1    
    27   16   15 1    
    28   17   16 ar   
    29   22   16 ar   
    30   18   17 1    
    31   19   17 ar   
    32   61   18 1    
    33   62   18 1    
    34   20   19 ar   
    35   21   20 ar   
    36   63   20 1    
    37   22   21 ar   
    38   24   23 1    
    39   40   23 2    
    40   25   24 2    
    41   26   24 am   
    42   27   26 am   
    43   64   26 1    
    44   28   27 2    
    45   29   27 1    
    46   30   29 2    
    47   40   29 1    
    48   31   30 1    
    49   32   31 ar   
    50   38   31 ar   
    51   33   32 ar   
    52   65   32 1    
    53   34   33 1    
    54   35   33 ar   
    55   74   34 1    
    56   75   34 1    
    57   76   34 1    
    58   36   35 1    
    59   37   35 ar   
    60   77   36 1    
    61   78   36 1    
    62   79   36 1    
    63   38   37 ar   
    64   66   37 1    
    65   39   38 1    
    66   40   39 1    
    67   41   39 1    
    68   42   41 1    
    69   67   41 1    
    70   68   41 1    
    71   43   42 1    
    72   44   42 1    
    73   69   42 1    
    74   82   43 1    
    75   45   44 1    
    76   46   44 1    
    77   70   44 1    
    78   83   45 1    
    79   47   46 1    
    80   48   46 1    
    81   71   46 1    
    82   84   47 1    
    83   49   48 1    
    84   72   48 1    
    85   73   48 1    
    86   50   49 1    
    87   51   50 ar   
    88   52   50 ar   
    89   53   50 1    
@<TRIPOS>SUBSTRUCTURE
     1 FAD600      1 GROUP   
@<TRIPOS>SET

