#    Name: 1cr6_CPU_2_INTS_M
#    Modification time : Mon Mar 24 20:54:55 2014

@<TRIPOS>MOLECULE
1cr6_CPU_2_INTS_M
   53     0     6     0     0
SMALL
NO_CHARGES


@<TRIPOS>ATOM
      1 O         -43.8900  -61.0545  -52.3715 O.2       1 ALC1        0.0000 
      2 O         -44.9420  -61.3160  -53.4940 O.2       5 ALL1        0.0000 
      3 O         -42.8380  -60.7930  -51.2490 O.2       3 ALP1        0.0000 
      4 CA        -42.6610  -60.2420  -56.9020 C.3       2 GLC5        0.0000 
      5 CA        -41.7800  -61.5770  -55.5160 C.3       6 GLL5        0.0000 
      6 CA        -43.5420  -58.9070  -58.2880 C.3       4 GLP5        0.0000 
      7 CA        -41.5085  -62.8435  -52.7225 C.3       2 GLC5        0.0000 
      8 CA        -42.5080  -61.6440  -54.1570 C.3       6 GLL5        0.0000 
      9 CA        -40.5090  -64.0430  -51.2880 C.3       4 GLP5        0.0000 
     10 CA        -42.1400  -61.0350  -52.3120 C.3       2 GLC5        0.0000 
     11 CA        -41.7720  -60.4260  -50.4670 C.3       4 GLP5        0.0000 
     12 CA        -43.6395  -59.2295  -54.4450 C.3       2 GLC5        0.0000 
     13 CA        -43.9430  -61.3550  -54.5530 C.3       6 GLL5        0.0000 
     14 CA        -43.3360  -57.1040  -54.3370 C.3       4 GLP5        0.0000 
     15 CA        -43.7425  -60.1310  -56.4205 C.3       2 GLC5        0.0000 
     16 CA        -44.9185  -62.8165  -55.9430 C.3       2 GLC5        0.0000 
     17 CA        -45.8940  -64.2780  -57.3330 C.3       4 GLP5        0.0000 
     18 CA        -47.8765  -62.1955  -55.9615 C.3       2 GLC5        0.0000 
     19 CA        -47.9670  -60.4080  -55.6680 C.3       6 GLL5        0.0000 
     20 CA        -47.7860  -63.9830  -56.2550 C.3       4 GLP5        0.0000 
     21 CA        -47.5855  -57.4435  -56.0380 C.3       2 GLC5        0.0000 
     22 CA        -47.7660  -59.4170  -56.8750 C.3       6 GLL5        0.0000 
     23 CA        -47.4050  -55.4700  -55.2010 C.3       4 GLP5        0.0000 
     24 CA        -47.9010  -61.6200  -57.2255 C.3       2 GLC5        0.0000 
     25 CA        -48.0360  -63.8230  -57.5760 C.3       4 GLP5        0.0000 
     26 CA        -50.0295  -58.7480  -59.3520 C.3       2 GLC5        0.0000 
     27 CA        -49.0960  -58.9360  -57.5950 C.3       6 GLL5        0.0000 
     28 CA        -50.9630  -58.5600  -61.1090 C.3       4 GLP5        0.0000 
     29 CA        -47.3675  -58.3105  -57.7890 C.3       2 GLC5        0.0000 
     30 CA        -45.6390  -57.6850  -57.9830 C.3       4 GLP5        0.0000 
     31 CA        -48.8155  -56.9900  -55.8840 C.3       2 GLC5        0.0000 
     32 CA        -50.2260  -58.5100  -56.5670 C.3       6 GLL5        0.0000 
     33 CA        -49.5925  -60.4250  -52.6670 C.3       2 GLC5        0.0000 
     34 CA        -48.9330  -59.7560  -54.6160 C.3       6 GLL5        0.0000 
     35 CA        -50.2520  -61.0940  -50.7180 C.3       4 GLP5        0.0000 
     36 CA        -37.5815  -62.0295  -58.1460 C.3       2 GLC5        0.0000 
     37 CA        -38.1040  -60.7880  -56.4940 C.3       6 GLL5        0.0000 
     38 CA        -37.4010  -62.7060  -60.0680 C.3       4 GLP5        0.0000 
     39 CA        -39.3180  -64.8158  -54.4042 C.3       2 GLC5        0.0000 
     40 CA        -38.1460  -62.9520  -55.2560 C.3       6 GLL5        0.0000 
     41 CA        -39.7820  -66.7210  -53.6350 C.3       4 GLP5        0.0000 
     42 CA        -37.6227  -64.2070  -55.8040 C.3       2 GLC5        0.0000 
     43 CA        -39.5620  -62.8690  -55.0910 C.3       6 GLL5        0.0000 
     44 CA        -36.5730  -65.7620  -56.2600 C.3       4 GLP5        0.0000 
     45 CA        -41.0006  -61.8731  -57.6769 C.3       2 GLC5        0.0000 
     46 CA        -40.2540  -61.7430  -55.6290 C.3       6 GLL5        0.0000 
     47 CA        -41.1700  -62.3470  -59.6050 C.3       4 GLP5        0.0000 
     48 CA        -46.7527  -58.7987  -57.1273 C.3       2 GLC5        0.0000 
     49 CA        -50.9558  -57.6227  -54.4428 C.3       2 GLC5        0.0000 
     50 CA        -51.6310  -56.2670  -52.9630 C.3       4 GLP5        0.0000 
     51 CA        -50.2090  -61.5102  -54.3600 C.3       2 GLC5        0.0000 
     52 CA        -50.3350  -59.4470  -55.2780 C.3       6 GLL5        0.0000 
     53 CA        -50.7840  -63.4190  -53.7730 C.3       4 GLP5        0.0000 
@<TRIPOS>BOND
@<TRIPOS>SUBSTRUCTURE
     1 ALC1        1 GROUP        1 X    ALC  0     ROOT ALC X 1
     2 GLC5        4 GROUP        1 X    GLC  0     **** GLC X 6
     3 ALP1        3 GROUP        1 Y    ALP  0     ROOT ALP Y 8
     4 GLP5        6 GROUP        1 Y    GLP  0     **** GLP Y 13
     5 ALL1        2 GROUP        1 Z    ALL  0     ROOT ALL Z 15
     6 GLL5        5 GROUP        1 Z    GLL  0     **** GLL Z 20
@<TRIPOS>SET

