#    Name: 1cr6_CPU_2_ligand
#    Modification time : Mon Mar 24 20:54:55 2014

@<TRIPOS>MOLECULE
1cr6_CPU_2_ligand
   43    44     1     0     0
SMALL
NO_CHARGES


@<TRIPOS>ATOM
      1 C1        -39.5110  -60.7000  -56.3340 C.ar      1 CPU1200     0.0000 
      2 C2        -38.1040  -60.7880  -56.4940 C.ar      1 CPU1200     0.0000 
      3 C3        -37.4200  -61.9180  -55.9540 C.ar      1 CPU1200     0.0000 
      4 C4        -38.1460  -62.9520  -55.2560 C.ar      1 CPU1200     0.0000 
      5 C5        -39.5620  -62.8690  -55.0910 C.ar      1 CPU1200     0.0000 
      6 C6        -40.2540  -61.7430  -55.6290 C.ar      1 CPU1200     0.0000 
      7 N1        -44.9420  -61.3160  -53.4940 N.am      1 CPU1200     0.0000 
      8 C7        -41.7800  -61.5770  -55.5160 C.3       1 CPU1200     0.0000 
      9 C8        -42.5080  -61.6440  -54.1570 C.3       1 CPU1200     0.0000 
     10 C9        -43.9430  -61.3550  -54.5530 C.3       1 CPU1200     0.0000 
     11 C10       -46.2400  -61.0190  -53.8090 C.2       1 CPU1200     0.0000 
     12 O1        -47.0340  -61.0080  -52.8540 O.2       1 CPU1200     0.0000 
     13 N2        -46.6150  -60.7470  -55.1160 N.am      1 CPU1200     0.0000 
     14 C11       -47.9670  -60.4080  -55.6680 C.3       1 CPU1200     0.0000 
     15 C12       -47.7660  -59.4170  -56.8750 C.3       1 CPU1200     0.0000 
     16 C13       -49.0960  -58.9360  -57.5950 C.3       1 CPU1200     0.0000 
     17 C14       -50.2260  -58.5100  -56.5670 C.3       1 CPU1200     0.0000 
     18 C15       -50.3350  -59.4470  -55.2780 C.3       1 CPU1200     0.0000 
     19 C16       -48.9330  -59.7560  -54.6160 C.3       1 CPU1200     0.0000 
     20 H         -40.0278  -59.9062  -56.7090 H         1 CPU1200     0.0000 
     21 H         -37.5929  -60.0666  -56.9802 H         1 CPU1200     0.0000 
     22 H         -36.4110  -62.0022  -56.0582 H         1 CPU1200     0.0000 
     23 H         -37.6351  -63.7493  -54.8783 H         1 CPU1200     0.0000 
     24 H         -40.0639  -63.5940  -54.6025 H         1 CPU1200     0.0000 
     25 H         -44.6385  -61.5131  -52.5439 H         1 CPU1200     0.0000 
     26 H         -42.2643  -62.3408  -56.2041 H         1 CPU1200     0.0000 
     27 H         -42.0595  -60.5916  -56.0082 H         1 CPU1200     0.0000 
     28 H         -42.1405  -60.8845  -53.5268 H         1 CPU1200     0.0000 
     29 H         -42.4240  -62.6175  -53.7641 H         1 CPU1200     0.0000 
     30 H         -43.9487  -60.3802  -55.1210 H         1 CPU1200     0.0000 
     31 H         -44.2400  -62.1153  -55.3319 H         1 CPU1200     0.0000 
     32 H         -45.8475  -60.7735  -55.8783 H         1 CPU1200     0.0000 
     33 H         -48.4411  -61.2902  -56.0657 H         1 CPU1200     0.0000 
     34 H         -47.1281  -59.9033  -57.6253 H         1 CPU1200     0.0000 
     35 H         -47.2326  -58.5277  -56.5132 H         1 CPU1200     0.0000 
     36 H         -49.4717  -59.7484  -58.2061 H         1 CPU1200     0.0000 
     37 H         -48.8607  -58.0852  -58.2237 H         1 CPU1200     0.0000 
     38 H         -51.1883  -58.5246  -57.0809 H         1 CPU1200     0.0000 
     39 H         -50.0260  -57.4913  -56.2315 H         1 CPU1200     0.0000 
     40 H         -50.7966  -60.3829  -55.5763 H         1 CPU1200     0.0000 
     41 H         -50.9660  -58.9493  -54.5485 H         1 CPU1200     0.0000 
     42 H         -48.5045  -58.8324  -54.2683 H         1 CPU1200     0.0000 
     43 H         -49.0803  -60.4414  -53.7998 H         1 CPU1200     0.0000 
@<TRIPOS>BOND
     1    2    1 ar   
     2    6    1 ar   
     3   20    1 1    
     4    3    2 ar   
     5   21    2 1    
     6    4    3 ar   
     7   22    3 1    
     8    5    4 ar   
     9   23    4 1    
    10    6    5 ar   
    11   24    5 1    
    12    8    6 1    
    13   10    7 1    
    14   11    7 am   
    15   25    7 1    
    16    9    8 1    
    17   26    8 1    
    18   27    8 1    
    19   10    9 1    
    20   28    9 1    
    21   29    9 1    
    22   30   10 1    
    23   31   10 1    
    24   12   11 2    
    25   13   11 am   
    26   14   13 1    
    27   32   13 1    
    28   15   14 1    
    29   19   14 1    
    30   33   14 1    
    31   16   15 1    
    32   34   15 1    
    33   35   15 1    
    34   17   16 1    
    35   36   16 1    
    36   37   16 1    
    37   18   17 1    
    38   38   17 1    
    39   39   17 1    
    40   19   18 1    
    41   40   18 1    
    42   41   18 1    
    43   42   19 1    
    44   43   19 1    
@<TRIPOS>SUBSTRUCTURE
     1 CPU1200     1 GROUP   
@<TRIPOS>SET

