#    Name: 2wmw_ZYW_1_INTS_M
#    Modification time : Tue Mar 25 04:29:39 2014

@<TRIPOS>MOLECULE
2wmw_ZYW_1_INTS_M
   47     0     9     0     0
SMALL
NO_CHARGES


@<TRIPOS>ATOM
      1 CA         18.8040   -3.7855    8.3170 C.3       3 GLC5        0.0000 
      2 CA         19.6460   -2.3340    9.6560 C.3       9 GLL5        0.0000 
      3 CA         17.9620   -5.2370    6.9780 C.3       6 GLP5        0.0000 
      4 CA         21.1480   -0.8865   10.4595 C.3       3 GLC5        0.0000 
      5 CA         22.6500    0.5610   11.2630 C.3       6 GLP5        0.0000 
      6 CA         17.8090    1.4705    9.4230 C.3       3 GLC5        0.0000 
      7 CA         17.6890   -0.4450    8.8800 C.3       9 GLL5        0.0000 
      8 CA         17.9290    3.3860    9.9660 C.3       6 GLP5        0.0000 
      9 CA         15.2800    1.0580    7.8800 C.3       3 GLC5        0.0000 
     10 CA         15.4490   -0.4750    9.4140 C.3       9 GLL5        0.0000 
     11 CA         15.1110    2.5910    6.3460 C.3       6 GLP5        0.0000 
     12 CA         15.8570    1.6255    9.9715 C.3       3 GLC5        0.0000 
     13 CA         16.2650    3.7260   10.5290 C.3       6 GLP5        0.0000 
     14 O          13.7100    1.1030    8.9160 O.2       1 ALC1        0.0000 
     15 O          14.1730   -0.1460    9.4980 O.2       7 ALL1        0.0000 
     16 O          13.2470    2.3520    8.3340 O.2       4 ALP1        0.0000 
     17 CA         14.6190   -3.3075    9.0290 C.3       3 GLC5        0.0000 
     18 CA         15.6080   -1.6400   10.1290 C.3       9 GLL5        0.0000 
     19 CA         13.6300   -4.9750    7.9290 C.3       6 GLP5        0.0000 
     20 CA         17.0220   -4.8865    8.8410 C.3       3 GLC5        0.0000 
     21 CA         16.0820   -4.5360   10.7040 C.3       9 GLL5        0.0000 
     22 CA         14.8645   -5.4490    9.6300 C.3       3 GLC5        0.0000 
     23 CA         13.6470   -6.3620    8.5560 C.3       6 GLP5        0.0000 
     24 CA         14.2415   -5.8635   10.8705 C.3       3 GLC5        0.0000 
     25 CA         15.7630   -5.3090   11.9820 C.3       9 GLL5        0.0000 
     26 CA         12.7200   -6.4180    9.7590 C.3       6 GLP5        0.0000 
     27 CA         18.2775   -2.3825   14.2520 C.3       3 GLC5        0.0000 
     28 CA         18.1480   -4.5350   14.5460 C.3       9 GLL5        0.0000 
     29 CA         18.4070   -0.2300   13.9580 C.3       6 GLP5        0.0000 
     30 OD1        20.5970   -4.3035   15.1805 O.co2     2 ASC3        0.0000 
     31 OD1        19.6070   -4.5450   14.3670 O.co2     8 ASL3        0.0000 
     32 OD1        21.5870   -4.0620   15.9940 O.co2     5 ASP3        0.0000 
     33 O          20.5970   -4.3035   15.1805 O.2       1 ALC1        0.0000 
     34 O          19.6070   -4.5450   14.3670 O.2       7 ALL1        0.0000 
     35 O          21.5870   -4.0620   15.9940 O.2       4 ALP1        0.0000 
     36 CA         14.3358   -1.1743    8.1567 C.3       3 GLC5        0.0000 
     37 CA         13.1430   -1.2910    6.5420 C.3       6 GLP5        0.0000 
     38 CA         17.0379   -2.4740    7.8042 C.3       3 GLC5        0.0000 
     39 CA         16.8530   -2.2350   10.2350 C.3       9 GLL5        0.0000 
     40 CA         16.7500   -3.3150    5.8740 C.3       6 GLP5        0.0000 
     41 CA         18.0628   -2.0880   13.2835 C.3       3 GLC5        0.0000 
     42 CA         18.0540   -3.6090   12.0000 C.3       9 GLL5        0.0000 
     43 CA         16.7527   -6.7677   10.6470 C.3       3 GLC5        0.0000 
     44 CA         17.5830   -8.6130    9.9510 C.3       6 GLP5        0.0000 
     45 CA         16.3306   -0.4251   11.3150 C.3       3 GLC5        0.0000 
     46 CA         17.9080   -1.6170    9.5880 C.3       9 GLL5        0.0000 
     47 CA         16.2340    0.4950   12.8770 C.3       6 GLP5        0.0000 
@<TRIPOS>BOND
@<TRIPOS>SUBSTRUCTURE
     1 ALC1       14 GROUP        1 X    ALC  0     ROOT ALC X 1
     2 ASC3       30 GROUP        1 X    ASC  0     **** ASC X 3
     3 GLC5        1 GROUP        1 X    GLC  0     **** GLC X 6
     4 ALP1       16 GROUP        1 Y    ALP  0     ROOT ALP Y 8
     5 ASP3       32 GROUP        1 Y    ASP  0     **** ASP Y 10
     6 GLP5        3 GROUP        1 Y    GLP  0     **** GLP Y 13
     7 ALL1       15 GROUP        1 Z    ALL  0     ROOT ALL Z 15
     8 ASL3       31 GROUP        1 Z    ASL  0     **** ASL Z 17
     9 GLL5        2 GROUP        1 Z    GLL  0     **** GLL Z 20
@<TRIPOS>SET

