#    Name: 2wmw_ZYW_1_ligand
#    Modification time : Tue Mar 25 04:29:39 2014

@<TRIPOS>MOLECULE
2wmw_ZYW_1_ligand
   34    36     1     0     0
SMALL
NO_CHARGES


@<TRIPOS>ATOM
      1 BR         19.6460   -2.3340    9.6560 Br        1 ZYW1270     0.0000 
      2 CAM        17.9080   -1.6170    9.5880 C.ar      1 ZYW1270     0.0000 
      3 CAC        17.6890   -0.4450    8.8800 C.ar      1 ZYW1270     0.0000 
      4 NAJ        16.4900    0.0960    8.8040 N.pl3     1 ZYW1270     0.0000 
      5 CAP        15.4490   -0.4750    9.4140 C.ar      1 ZYW1270     0.0000 
      6 NAK        14.1730   -0.1460    9.4980 N.pl3     1 ZYW1270     0.0000 
      7 NAI        13.5770   -0.9800   10.1750 N.2       1 ZYW1270     0.0000 
      8 CAD        14.4080   -1.9270   10.5930 C.2       1 ZYW1270     0.0000 
      9 CAO        15.6080   -1.6400   10.1290 C.ar      1 ZYW1270     0.0000 
     10 CAN        16.8530   -2.2350   10.2350 C.ar      1 ZYW1270     0.0000 
     11 NAQ        17.0150   -3.4240   10.9590 N.3       1 ZYW1270     0.0000 
     12 CAH        18.0540   -3.6090   12.0000 C.3       1 ZYW1270     0.0000 
     13 CAG        16.0820   -4.5360   10.7040 C.3       1 ZYW1270     0.0000 
     14 CAF        15.7630   -5.3090   11.9820 C.3       1 ZYW1270     0.0000 
     15 OAL        16.9530   -5.5350   12.7210 O.3       1 ZYW1270     0.0000 
     16 CAR        17.3830   -4.2830   13.2180 C.3       1 ZYW1270     0.0000 
     17 CAE        18.1480   -4.5350   14.5460 C.3       1 ZYW1270     0.0000 
     18 NAA        19.6070   -4.5450   14.3670 N.4       1 ZYW1270     0.0000 
     19 H          18.5154   -0.0026    8.4051 H         1 ZYW1270     0.0000 
     20 H          16.3438    0.9857    8.2597 H         1 ZYW1270     0.0000 
     21 H          13.7990    0.6729    9.0562 H         1 ZYW1270     0.0000 
     22 H          14.1693   -2.6920   11.1421 H         1 ZYW1270     0.0000 
     23 H          18.4571   -2.6591   12.3157 H         1 ZYW1270     0.0000 
     24 H          18.8438   -4.2537   11.6464 H         1 ZYW1270     0.0000 
     25 H          16.5104   -5.2369    9.9745 H         1 ZYW1270     0.0000 
     26 H          15.1395   -4.1578   10.2849 H         1 ZYW1270     0.0000 
     27 H          15.2767   -6.2491   11.6888 H         1 ZYW1270     0.0000 
     28 H          15.0311   -4.7210   12.5518 H         1 ZYW1270     0.0000 
     29 H          16.4735   -3.6952   13.4555 H         1 ZYW1270     0.0000 
     30 H          17.7970   -5.4955   14.9537 H         1 ZYW1270     0.0000 
     31 H          17.8461   -3.7502   15.2566 H         1 ZYW1270     0.0000 
     32 H          19.9499   -5.4620   14.1632 H         1 ZYW1270     0.0000 
     33 H          19.8930   -3.9512   13.6149 H         1 ZYW1270     0.0000 
     34 H          20.0840   -4.2293   15.1873 H         1 ZYW1270     0.0000 
@<TRIPOS>BOND
     1    2    1 1    
     2    3    2 ar   
     3   10    2 ar   
     4    4    3 ar   
     5   19    3 1    
     6    5    4 ar   
     7   20    4 1    
     8    6    5 1    
     9    9    5 ar   
    10    7    6 1    
    11   21    6 1    
    12    8    7 2    
    13    9    8 1    
    14   22    8 1    
    15   10    9 ar   
    16   11   10 1    
    17   12   11 1    
    18   13   11 1    
    19   16   12 1    
    20   23   12 1    
    21   24   12 1    
    22   14   13 1    
    23   25   13 1    
    24   26   13 1    
    25   15   14 1    
    26   27   14 1    
    27   28   14 1    
    28   16   15 1    
    29   17   16 1    
    30   29   16 1    
    31   18   17 1    
    32   30   17 1    
    33   31   17 1    
    34   32   18 1    
    35   33   18 1    
    36   34   18 1    
@<TRIPOS>SUBSTRUCTURE
     1 ZYW1270     1 GROUP   
@<TRIPOS>SET

