#    Name: 2xvd_AS6_1_INTS_M
#    Modification time : Tue Mar 25 06:50:54 2014

@<TRIPOS>MOLECULE
2xvd_AS6_1_INTS_M
   93     0     9     0     0
SMALL
NO_CHARGES


@<TRIPOS>ATOM
      1 CA         10.8705    5.4370    8.7335 C.3       3 GLC5        0.0000 
      2 CA          9.4220    5.6620   10.0960 C.3       9 GLL5        0.0000 
      3 CA         12.3190    5.2120    7.3710 C.3       6 GLP5        0.0000 
      4 CA          9.0900    6.9915   12.9205 C.3       3 GLC5        0.0000 
      5 CA          9.3460    5.6460   11.6120 C.3       9 GLL5        0.0000 
      6 CA          8.8340    8.3370   14.2290 C.3       6 GLP5        0.0000 
      7 CA          7.1395    7.0470   12.7745 C.3       3 GLC5        0.0000 
      8 CA          7.8960    5.6550   12.0780 C.3       9 GLL5        0.0000 
      9 CA          6.3830    8.4390   13.4710 C.3       6 GLP5        0.0000 
     10 CA          6.5725    4.4825   12.8890 C.3       3 GLC5        0.0000 
     11 CA          5.2490    3.3100   13.7000 C.3       6 GLP5        0.0000 
     12 CA         12.4955    1.9865   13.8625 C.3       3 GLC5        0.0000 
     13 CA         12.3610    3.6850   12.5100 C.3       9 GLL5        0.0000 
     14 CA         12.6300    0.2880   15.2150 C.3       6 GLP5        0.0000 
     15 CA         14.3815    2.2870   11.1520 C.3       3 GLC5        0.0000 
     16 CA         13.7070    3.8980   12.5000 C.3       9 GLL5        0.0000 
     17 CA         15.0560    0.6760    9.8040 C.3       6 GLP5        0.0000 
     18 CA         15.4130    4.3175   13.7360 C.3       3 GLC5        0.0000 
     19 CA         17.1190    4.7370   14.9720 C.3       6 GLP5        0.0000 
     20 CA         15.2220    3.6755   11.4975 C.3       3 GLC5        0.0000 
     21 CA         16.7370    3.4530   10.4950 C.3       6 GLP5        0.0000 
     22 N          15.7170    5.2650   12.4365 N.am      2 SEC2        0.0000 
     23 N          14.2340    5.1050   12.2260 N.am      8 SEL2        0.0000 
     24 N          17.2000    5.4250   12.6470 N.am      5 SEP2        0.0000 
     25 CA         13.1115    5.6655   13.7275 C.3       3 GLC5        0.0000 
     26 CA         13.3990    6.1120   11.9600 C.3       9 GLL5        0.0000 
     27 CA         12.8240    5.2190   15.4950 C.3       6 GLP5        0.0000 
     28 CA         15.1340    5.5370   11.1180 C.3       3 GLC5        0.0000 
     29 CA         16.8690    4.9620   10.2760 C.3       6 GLP5        0.0000 
     30 CA         13.0300    4.7465   10.5225 C.3       3 GLC5        0.0000 
     31 CA         12.6610    3.3810    9.0850 C.3       6 GLP5        0.0000 
     32 O          15.4090    7.5940   11.3125 O.2       1 ALC1        0.0000 
     33 O          14.0050    7.3550   11.6870 O.2       7 ALL1        0.0000 
     34 O          16.8130    7.8330   10.9380 O.2       4 ALP1        0.0000 
     35 CA          8.2110   10.8710   11.6710 C.3       3 GLC5        0.0000 
     36 CA          8.8000    9.1190   10.9360 C.3       9 GLL5        0.0000 
     37 CA          7.6220   12.6230   12.4060 C.3       6 GLP5        0.0000 
     38 CA          8.8170    8.7280   12.5825 C.3       3 GLC5        0.0000 
     39 CA         16.4010   10.9010   12.8890 C.3       3 GLC5        0.0000 
     40 CA         15.6390   11.9890   11.1620 C.3       9 GLL5        0.0000 
     41 CA         17.1630    9.8130   14.6160 C.3       6 GLP5        0.0000 
     42 CA         15.2475   10.5050    9.5250 C.3       3 GLC5        0.0000 
     43 CA         14.8560    9.0210    7.8880 C.3       6 GLP5        0.0000 
     44 CA         14.3785   10.9700    8.7865 C.3       3 GLC5        0.0000 
     45 CA         13.9010   12.9190    9.6850 C.3       9 GLL5        0.0000 
     46 CA         10.8855    2.9840   10.2130 C.3       3 GLC5        0.0000 
     47 CA          9.1100    2.5870   11.3410 C.3       9 GLL5        0.0000 
     48 CA          6.8675    2.3390   12.6015 C.3       3 GLC5        0.0000 
     49 CA          8.4860    1.3680   11.5030 C.3       9 GLL5        0.0000 
     50 CA          9.3490    0.5000    8.9685 C.3       3 GLC5        0.0000 
     51 CA          8.0420    0.6170   10.2800 C.3       9 GLL5        0.0000 
     52 CA         10.6560    0.3830    7.6570 C.3       6 GLP5        0.0000 
     53 CA          7.3155   -0.1500    8.7935 C.3       3 GLC5        0.0000 
     54 CA          6.5890   -0.9170    7.3070 C.3       6 GLP5        0.0000 
     55 N           8.3505   -0.8060    8.8515 N.am      2 SEC2        0.0000 
     56 N           8.6610   -0.6650   10.2410 N.am      8 SEL2        0.0000 
     57 N           8.0400   -0.9470    7.4620 N.am      5 SEP2        0.0000 
     58 O           7.3450   -1.0335   10.5300 O.2       1 ALC1        0.0000 
     59 O           8.6610   -0.6650   10.2410 O.2       7 ALL1        0.0000 
     60 O           6.0290   -1.4020   10.8190 O.2       4 ALP1        0.0000 
     61 CA          6.4025    1.4560   13.0870 C.3       3 GLC5        0.0000 
     62 CA          8.2720    0.8710   12.7730 C.3       9 GLL5        0.0000 
     63 CA          4.5330    2.0410   13.4010 C.3       6 GLP5        0.0000 
     64 CA          8.6960   -1.1355   12.7745 C.3       3 GLC5        0.0000 
     65 CA          9.1200   -3.1420   12.7760 C.3       6 GLP5        0.0000 
     66 CA          8.1415    0.2250   15.4115 C.3       3 GLC5        0.0000 
     67 CA          8.6910    1.5920   13.8680 C.3       9 GLL5        0.0000 
     68 CA          7.5920   -1.1420   16.9550 C.3       6 GLP5        0.0000 
     69 CA         11.2810    4.3960   15.2090 C.3       3 GLC5        0.0000 
     70 CA          9.7380    3.5730   14.9230 C.3       9 GLL5        0.0000 
     71 CA          9.6125    4.3685   16.8250 C.3       3 GLC5        0.0000 
     72 CA          9.4870    5.1640   18.7270 C.3       6 GLP5        0.0000 
     73 CA          7.8125    3.5460   15.5110 C.3       3 GLC5        0.0000 
     74 CA          5.8870    3.5190   16.0990 C.3       6 GLP5        0.0000 
     75 CA         12.8285    4.6420   13.9644 C.3       3 GLC5        0.0000 
     76 CA         12.7470    3.7230   10.7594 C.3       3 GLC5        0.0000 
     77 CA         13.0740    9.6045   12.8480 C.3       3 GLC5        0.0000 
     78 CA         13.3490    8.5200   11.2320 C.3       9 GLL5        0.0000 
     79 CA         12.4350   10.1010   14.4510 C.3       6 GLP5        0.0000 
     80 CA         14.2845    9.0645    9.5665 C.3       3 GLC5        0.0000 
     81 CA         14.0770    9.6960   11.2580 C.3       9 GLL5        0.0000 
     82 CA         12.6608   10.5020   12.5265 C.3       3 GLC5        0.0000 
     83 CA         13.5360   10.8980   10.8320 C.3       9 GLL5        0.0000 
     84 CA         13.8712    9.9620    9.2450 C.3       3 GLC5        0.0000 
     85 CA         12.1047    9.6208   12.5015 C.3       3 GLC5        0.0000 
     86 CA         11.5080    9.7430   10.3410 C.3       9 GLL5        0.0000 
     87 CA         13.3152    9.0808    9.2200 C.3       3 GLC5        0.0000 
     88 CA         12.0410    8.5380   10.7630 C.3       9 GLL5        0.0000 
     89 CA          9.8607    0.4363   14.2312 C.3       3 GLC5        0.0000 
     90 CA         11.2400   -0.3590   15.1420 C.3       6 GLP5        0.0000 
     91 CA          7.1516    2.8219   13.5846 C.3       3 GLC5        0.0000 
     92 CA         10.3823    1.4185   14.7285 C.3       3 GLC5        0.0000 
     93 CA          9.3110    2.8190   13.7070 C.3       9 GLL5        0.0000 
@<TRIPOS>BOND
@<TRIPOS>SUBSTRUCTURE
     1 ALC1       32 GROUP        1 X    ALC  0     ROOT ALC X 1
     2 SEC2       22 GROUP        1 X    SEC  0     **** SEC X 2
     3 GLC5        1 GROUP        1 X    GLC  0     **** GLC X 6
     4 ALP1       34 GROUP        1 Y    ALP  0     ROOT ALP Y 8
     5 SEP2       24 GROUP        1 Y    SEP  0     **** SEP Y 9
     6 GLP5        3 GROUP        1 Y    GLP  0     **** GLP Y 13
     7 ALL1       33 GROUP        1 Z    ALL  0     ROOT ALL Z 15
     8 SEL2       23 GROUP        1 Z    SEL  0     **** SEL Z 16
     9 GLL5        2 GROUP        1 Z    GLL  0     **** GLL Z 20
@<TRIPOS>SET

