#    Name: 2xvd_AS6_1_ligand
#    Modification time : Tue Mar 25 06:50:54 2014

@<TRIPOS>MOLECULE
2xvd_AS6_1_ligand
   69    72     1     0     0
SMALL
NO_CHARGES


@<TRIPOS>ATOM
      1 C1          9.4220    5.6620   10.0960 C.3       1 AS61889     0.0000 
      2 C2          9.3460    5.6460   11.6120 C.3       1 AS61889     0.0000 
      3 C3          7.8960    5.6550   12.0780 C.3       1 AS61889     0.0000 
      4 N1         10.1490    4.5810   12.2350 N.pl3     1 AS61889     0.0000 
      5 C4         11.5570    4.7790   12.2250 C.ar      1 AS61889     0.0000 
      6 C5         12.3610    3.6850   12.5100 C.ar      1 AS61889     0.0000 
      7 C6         13.7070    3.8980   12.5000 C.ar      1 AS61889     0.0000 
      8 N2         14.2340    5.1050   12.2260 N.ar      1 AS61889     0.0000 
      9 C7         13.3990    6.1120   11.9600 C.ar      1 AS61889     0.0000 
     10 N3         14.0050    7.3550   11.6870 N.pl3     1 AS61889     0.0000 
     11 C8         13.3490    8.5200   11.2320 C.ar      1 AS61889     0.0000 
     12 C9         14.0770    9.6960   11.2580 C.ar      1 AS61889     0.0000 
     13 C10        13.5360   10.8980   10.8320 C.ar      1 AS61889     0.0000 
     14 C11        12.2370   10.9080   10.3720 C.ar      1 AS61889     0.0000 
     15 C12        11.5080    9.7430   10.3410 C.ar      1 AS61889     0.0000 
     16 C13        12.0410    8.5380   10.7630 C.ar      1 AS61889     0.0000 
     17 S1          9.8340    9.8680    9.7150 S.o2      1 AS61889     0.0000 
     18 O1          9.5170   11.2920    9.6360 O.2       1 AS61889     0.0000 
     19 O2          9.8070    9.0460    8.5010 O.2       1 AS61889     0.0000 
     20 C14         8.8000    9.1190   10.9360 C.3       1 AS61889     0.0000 
     21 N4         14.2400   12.1100   10.8490 N.3       1 AS61889     0.0000 
     22 C15        15.6390   11.9890   11.1620 C.3       1 AS61889     0.0000 
     23 C16        16.1790   13.3930   11.3150 C.3       1 AS61889     0.0000 
     24 O3         15.8920   14.1100   10.1080 O.3       1 AS61889     0.0000 
     25 C17        14.4760   14.2820    9.9660 C.3       1 AS61889     0.0000 
     26 C18        13.9010   12.9190    9.6850 C.3       1 AS61889     0.0000 
     27 N5         12.0610    5.9950   11.9470 N.ar      1 AS61889     0.0000 
     28 C19         9.5240    3.3320   12.4340 C.ar      1 AS61889     0.0000 
     29 C20         9.1100    2.5870   11.3410 C.ar      1 AS61889     0.0000 
     30 C21         8.4860    1.3680   11.5030 C.ar      1 AS61889     0.0000 
     31 C22         8.0420    0.6170   10.2800 C.3       1 AS61889     0.0000 
     32 O4          8.6610   -0.6650   10.2410 O.3       1 AS61889     0.0000 
     33 C23         8.2720    0.8710   12.7730 C.ar      1 AS61889     0.0000 
     34 C24         8.6910    1.5920   13.8680 C.ar      1 AS61889     0.0000 
     35 C25         9.3110    2.8190   13.7070 C.ar      1 AS61889     0.0000 
     36 C26         9.7380    3.5730   14.9230 C.3       1 AS61889     0.0000 
     37 H           9.7747    6.6385   11.9488 H         1 AS61889     0.0000 
     38 H          11.9578    2.7814   12.7131 H         1 AS61889     0.0000 
     39 H          14.3472    3.0890   12.7141 H         1 AS61889     0.0000 
     40 H          15.0580    7.4233   11.8379 H         1 AS61889     0.0000 
     41 H          15.0592    9.6781   11.6074 H         1 AS61889     0.0000 
     42 H          11.8117   11.7934   10.0502 H         1 AS61889     0.0000 
     43 H          11.4894    7.6818   10.7317 H         1 AS61889     0.0000 
     44 H          16.1845   11.4937   10.3656 H         1 AS61889     0.0000 
     45 H          15.7946   11.4554   12.0938 H         1 AS61889     0.0000 
     46 H          17.2511   13.3309   11.4996 H         1 AS61889     0.0000 
     47 H          15.7001   13.8534   12.1788 H         1 AS61889     0.0000 
     48 H          14.2341   14.9389    9.1366 H         1 AS61889     0.0000 
     49 H          14.0268   14.6678   10.8755 H         1 AS61889     0.0000 
     50 H          12.8337   13.0028    9.5676 H         1 AS61889     0.0000 
     51 H          14.3524   12.5222    8.7913 H         1 AS61889     0.0000 
     52 H           9.2742    2.9563   10.3836 H         1 AS61889     0.0000 
     53 H           8.3019    1.2160    9.3940 H         1 AS61889     0.0000 
     54 H           6.9449    0.5330   10.3060 H         1 AS61889     0.0000 
     55 H           7.8002   -0.0365   12.8988 H         1 AS61889     0.0000 
     56 H           8.5428    1.2164   14.8215 H         1 AS61889     0.0000 
     57 H          10.3679    5.6569    9.7715 H         1 AS61889     0.0000 
     58 H           8.9696    4.8664    9.6930 H         1 AS61889     0.0000 
     59 H           8.9843    6.4744    9.7108 H         1 AS61889     0.0000 
     60 H           7.8264    5.6457   13.0755 H         1 AS61889     0.0000 
     61 H           7.4080    6.4670   11.7577 H         1 AS61889     0.0000 
     62 H           7.3929    4.8589   11.7416 H         1 AS61889     0.0000 
     63 H           9.0382    8.1595   11.0865 H         1 AS61889     0.0000 
     64 H           8.8738    9.5814   11.8196 H         1 AS61889     0.0000 
     65 H           7.8358    9.1437   10.6720 H         1 AS61889     0.0000 
     66 H          10.7240    3.7395   14.9296 H         1 AS61889     0.0000 
     67 H           9.2898    4.4649   14.9834 H         1 AS61889     0.0000 
     68 H           9.5188    3.0773   15.7634 H         1 AS61889     0.0000 
     69 H           7.9230   -1.3143   10.4250 H         1 AS61889     0.0000 
@<TRIPOS>BOND
     1    2    1 1    
     2   57    1 1    
     3   58    1 1    
     4   59    1 1    
     5    3    2 1    
     6    4    2 1    
     7   37    2 1    
     8   60    3 1    
     9   61    3 1    
    10   62    3 1    
    11    5    4 1    
    12   28    4 1    
    13    6    5 ar   
    14   27    5 ar   
    15    7    6 ar   
    16   38    6 1    
    17    8    7 ar   
    18   39    7 1    
    19    9    8 ar   
    20   10    9 1    
    21   27    9 ar   
    22   11   10 1    
    23   40   10 1    
    24   12   11 ar   
    25   16   11 ar   
    26   13   12 ar   
    27   41   12 1    
    28   14   13 ar   
    29   21   13 1    
    30   15   14 ar   
    31   42   14 1    
    32   16   15 ar   
    33   17   15 1    
    34   43   16 1    
    35   18   17 2    
    36   19   17 2    
    37   20   17 1    
    38   63   20 1    
    39   64   20 1    
    40   65   20 1    
    41   22   21 1    
    42   26   21 1    
    43   23   22 1    
    44   44   22 1    
    45   45   22 1    
    46   24   23 1    
    47   46   23 1    
    48   47   23 1    
    49   25   24 1    
    50   26   25 1    
    51   48   25 1    
    52   49   25 1    
    53   50   26 1    
    54   51   26 1    
    55   29   28 ar   
    56   35   28 ar   
    57   30   29 ar   
    58   52   29 1    
    59   31   30 1    
    60   33   30 ar   
    61   32   31 1    
    62   53   31 1    
    63   54   31 1    
    64   69   32 1    
    65   34   33 ar   
    66   55   33 1    
    67   35   34 ar   
    68   56   34 1    
    69   36   35 1    
    70   66   36 1    
    71   67   36 1    
    72   68   36 1    
@<TRIPOS>SUBSTRUCTURE
     1 AS61889     1 GROUP   
@<TRIPOS>SET

