#    Name: 3is9_AC7_1_INTS_M
#    Modification time : Tue Mar 25 17:20:05 2014

@<TRIPOS>MOLECULE
3is9_AC7_1_INTS_M
   93     0     6     0     0
SMALL
NO_CHARGES


@<TRIPOS>ATOM
      1 CA         51.3980  -28.1910   39.8100 C.3       2 GLC5        0.0000 
      2 CA         50.0780  -28.7320   38.2230 C.3       6 GLL5        0.0000 
      3 CA         52.7180  -27.6500   41.3970 C.3       4 GLP5        0.0000 
      4 CA         45.9510  -28.0095   40.2315 C.3       2 GLC5        0.0000 
      5 CA         47.8620  -28.8750   39.6160 C.3       6 GLL5        0.0000 
      6 CA         44.0400  -27.1440   40.8470 C.3       4 GLP5        0.0000 
      7 CA         45.8485  -26.8330   39.8665 C.3       2 GLC5        0.0000 
      8 CA         47.3970  -27.5950   39.7910 C.3       6 GLL5        0.0000 
      9 CA         44.3000  -26.0710   39.9420 C.3       4 GLP5        0.0000 
     10 CA         49.6425  -32.2115   42.5265 C.3       2 GLC5        0.0000 
     11 CA         47.7750  -32.2300   41.5400 C.3       6 GLL5        0.0000 
     12 CA         51.5100  -32.1930   43.5130 C.3       4 GLP5        0.0000 
     13 CA         46.3195  -25.7365   39.7760 C.3       2 GLC5        0.0000 
     14 CA         47.6760  -26.4120   38.8800 C.3       6 GLL5        0.0000 
     15 CA         44.9630  -25.0610   40.6720 C.3       4 GLP5        0.0000 
     16 CA         46.2905  -27.8060   38.1615 C.3       2 GLC5        0.0000 
     17 CA         44.9050  -29.2000   37.4430 C.3       4 GLP5        0.0000 
     18 CA         49.9210  -24.5850   40.2910 C.3       2 GLC5        0.0000 
     19 CA         48.8430  -25.5930   39.3880 C.3       6 GLL5        0.0000 
     20 CA         50.9990  -23.5770   41.1940 C.3       4 GLP5        0.0000 
     21 CA         49.9000  -26.0155   41.0610 C.3       2 GLC5        0.0000 
     22 CA         50.9570  -26.4380   42.7340 C.3       4 GLP5        0.0000 
     23 CA         47.1055  -24.7235   39.7375 C.3       2 GLC5        0.0000 
     24 CA         45.3680  -23.8540   40.0870 C.3       4 GLP5        0.0000 
     25 CA         48.6795  -22.4560   37.9200 C.3       2 GLC5        0.0000 
     26 CA         49.0600  -24.3980   38.4590 C.3       6 GLL5        0.0000 
     27 CA         48.2990  -20.5140   37.3810 C.3       4 GLP5        0.0000 
     28 CA         48.9555  -24.5090   36.3290 C.3       2 GLC5        0.0000 
     29 CA         48.8510  -24.6200   34.1990 C.3       4 GLP5        0.0000 
     30 CA         49.4350  -23.6365   39.9515 C.3       2 GLC5        0.0000 
     31 CA         49.8100  -22.8750   41.4440 C.3       4 GLP5        0.0000 
     32 CA         47.0780  -24.0355   38.6065 C.3       2 GLC5        0.0000 
     33 CA         45.0960  -23.6730   38.7540 C.3       4 GLP5        0.0000 
     34 CA         50.4840  -24.0595   35.2040 C.3       2 GLC5        0.0000 
     35 CA         52.1170  -23.4990   36.2090 C.3       6 GLL5        0.0000 
     36 CA         51.9625  -22.6315   38.0305 C.3       2 GLC5        0.0000 
     37 CA         51.8080  -21.7640   39.8520 C.3       4 GLP5        0.0000 
     38 CA         52.4095  -21.3765   35.9400 C.3       2 GLC5        0.0000 
     39 CA         52.7020  -19.2540   35.6710 C.3       4 GLP5        0.0000 
     40 CA         50.0595  -28.0380   33.0125 C.3       2 GLC5        0.0000 
     41 CA         51.0120  -29.8900   33.7540 C.3       6 GLL5        0.0000 
     42 CA         49.1070  -26.1860   32.2710 C.3       4 GLP5        0.0000 
     43 CA         51.8225  -30.3050   31.7865 C.3       2 GLC5        0.0000 
     44 CA         52.6330  -30.7200   29.8190 C.3       4 GLP5        0.0000 
     45 CA         52.4630  -31.0405   35.0165 C.3       2 GLC5        0.0000 
     46 CA         53.9140  -32.1910   36.2790 C.3       4 GLP5        0.0000 
     47 CA         49.6365  -30.4910   32.4030 C.3       2 GLC5        0.0000 
     48 CA         48.2610  -31.0920   31.0520 C.3       4 GLP5        0.0000 
     49 CA         46.1115  -35.5600   43.5760 C.3       2 GLC5        0.0000 
     50 CA         45.2570  -34.0320   42.9220 C.3       6 GLL5        0.0000 
     51 CA         46.9660  -37.0880   44.2300 C.3       4 GLP5        0.0000 
     52 CA         44.4490  -34.0570   41.2440 C.3       2 GLC5        0.0000 
     53 CA         43.6410  -34.0820   39.5660 C.3       4 GLP5        0.0000 
     54 CA         53.5000  -29.8060   38.5840 C.3       2 GLC5        0.0000 
     55 CA         53.9920  -27.6510   38.5720 C.3       6 GLL5        0.0000 
     56 CA         53.0080  -31.9610   38.5960 C.3       4 GLP5        0.0000 
     57 CA         53.6710  -25.7150   39.3920 C.3       2 GLC5        0.0000 
     58 CA         53.3500  -23.7790   40.2120 C.3       4 GLP5        0.0000 
     59 CA         53.3550  -27.6505   39.9845 C.3       2 GLC5        0.0000 
     60 CA         55.5975  -28.3105   39.6400 C.3       2 GLC5        0.0000 
     61 CA         57.2030  -28.9700   40.7080 C.3       4 GLP5        0.0000 
     62 CA         49.2905  -36.2300   43.3125 C.3       2 GLC5        0.0000 
     63 CA         49.1610  -35.8510   41.8700 C.3       6 GLL5        0.0000 
     64 CA         49.4200  -36.6090   44.7550 C.3       4 GLP5        0.0000 
     65 CA         48.1465  -36.2030   40.4895 C.3       2 GLC5        0.0000 
     66 CA         47.1320  -36.5550   39.1090 C.3       4 GLP5        0.0000 
     67 N          47.3960  -31.5810   33.8420 N.am      1 SEC2        0.0000 
     68 N          48.1740  -32.3420   34.8860 N.am      5 SEL2        0.0000 
     69 N          46.6180  -30.8200   32.7980 N.am      3 SEP2        0.0000 
     70 CA         47.8760  -32.7680   36.8265 C.3       2 GLC5        0.0000 
     71 CA         48.6020  -31.5380   35.5970 C.3       6 GLL5        0.0000 
     72 CA         47.1500  -33.9980   38.0560 C.3       4 GLP5        0.0000 
     73 CA         46.5555  -31.3865   35.8100 C.3       2 GLC5        0.0000 
     74 CA         44.5090  -31.2350   36.0230 C.3       4 GLP5        0.0000 
     75 CA         47.8845  -30.9795   33.5970 C.3       2 GLC5        0.0000 
     76 CA         47.1670  -30.4210   31.5970 C.3       4 GLP5        0.0000 
     77 CA         44.1405  -29.5065   41.8695 C.3       2 GLC5        0.0000 
     78 CA         44.9210  -30.5790   43.2150 C.3       6 GLL5        0.0000 
     79 CA         43.3600  -28.4340   40.5240 C.3       4 GLP5        0.0000 
     80 CA         51.7242  -30.7353   37.7584 C.3       2 GLC5        0.0000 
     81 CA         50.4020  -30.1070   36.1830 C.3       6 GLL5        0.0000 
     82 CA         46.7218  -29.4890   37.6947 C.3       2 GLC5        0.0000 
     83 CA         48.7630  -29.2870   38.4090 C.3       6 GLL5        0.0000 
     84 CA         48.5102  -28.4780   41.3053 C.3       2 GLC5        0.0000 
     85 CA         49.3910  -28.7210   42.9070 C.3       4 GLP5        0.0000 
     86 CA         46.2672  -28.7175   38.5733 C.3       2 GLC5        0.0000 
     87 CA         45.8950  -29.5350   39.2542 C.3       2 GLC5        0.0000 
     88 CA         46.3310  -29.7760   41.5070 C.3       6 GLL5        0.0000 
     89 CA         45.0738  -29.2801   40.9098 C.3       2 GLC5        0.0000 
     90 CA         47.4390  -29.9640   40.6240 C.3       6 GLL5        0.0000 
     91 CA         46.1904  -32.3084   40.2509 C.3       2 GLC5        0.0000 
     92 CA         45.9410  -30.8010   42.4270 C.3       6 GLL5        0.0000 
     93 CA         44.9730  -33.4110   39.1890 C.3       4 GLP5        0.0000 
@<TRIPOS>BOND
@<TRIPOS>SUBSTRUCTURE
     1 SEC2       67 GROUP        1 X    SEC  0     ROOT SEC X 2
     2 GLC5        1 GROUP        1 X    GLC  0     **** GLC X 6
     3 SEP2       69 GROUP        1 Y    SEP  0     ROOT SEP Y 9
     4 GLP5        3 GROUP        1 Y    GLP  0     **** GLP Y 13
     5 SEL2       68 GROUP        1 Z    SEL  0     ROOT SEL Z 16
     6 GLL5        2 GROUP        1 Z    GLL  0     **** GLL Z 20
@<TRIPOS>SET

