#    Name: 3is9_AC7_1_ligand
#    Modification time : Tue Mar 25 17:20:05 2014

@<TRIPOS>MOLECULE
3is9_AC7_1_ligand
   63    64     1     0     0
SMALL
NO_CHARGES


@<TRIPOS>ATOM
      1 C1         50.0780  -28.7320   38.2230 C.ar      1 AC7556      0.0000 
      2 O1         51.1610  -30.4810   35.0620 O.3       1 AC7556      0.0000 
      3 C2         50.8800  -29.0920   37.0940 C.ar      1 AC7556      0.0000 
      4 O2         46.2770  -33.0780   43.3100 O.3       1 AC7556      0.0000 
      5 C3         50.4020  -30.1070   36.1830 C.ar      1 AC7556      0.0000 
      6 O3         50.8840  -23.4290   36.9350 O.3       1 AC7556      0.0000 
      7 C4         49.0810  -30.6380   36.3720 C.ar      1 AC7556      0.0000 
      8 C5         48.3140  -30.2690   37.4840 C.ar      1 AC7556      0.0000 
      9 O5         52.7230  -27.4860   37.9320 O.3       1 AC7556      0.0000 
     10 C6         48.7630  -29.2870   38.4090 C.ar      1 AC7556      0.0000 
     11 C7         52.2600  -28.4570   36.9450 C.2       1 AC7556      0.0000 
     12 O7         48.4850  -34.6450   42.2630 O.3       1 AC7556      0.0000 
     13 C8         47.8620  -28.8750   39.6160 C.2       1 AC7556      0.0000 
     14 C9         47.3970  -27.5950   39.7910 C.2       1 AC7556      0.0000 
     15 C10        46.6500  -32.0640   42.4300 C.ar      1 AC7556      0.0000 
     16 C11        45.9410  -30.8010   42.4270 C.ar      1 AC7556      0.0000 
     17 C12        46.3310  -29.7760   41.5070 C.ar      1 AC7556      0.0000 
     18 C13        47.4390  -29.9640   40.6240 C.ar      1 AC7556      0.0000 
     19 C14        48.1220  -31.1970   40.6590 C.ar      1 AC7556      0.0000 
     20 C15        47.7750  -32.2300   41.5400 C.ar      1 AC7556      0.0000 
     21 C16        48.6310  -33.4810   41.4210 C.2       1 AC7556      0.0000 
     22 C17        47.6760  -26.4120   38.8800 C.3       1 AC7556      0.0000 
     23 C18        48.8430  -25.5930   39.3880 C.3       1 AC7556      0.0000 
     24 C19        49.0600  -24.3980   38.4590 C.3       1 AC7556      0.0000 
     25 C20        50.3360  -24.5690   37.6550 C.2       1 AC7556      0.0000 
     26 C21        52.1170  -23.4990   36.2090 C.3       1 AC7556      0.0000 
     27 C22        51.0120  -29.8900   33.7540 C.3       1 AC7556      0.0000 
     28 C23        45.2570  -34.0320   42.9220 C.3       1 AC7556      0.0000 
     29 C24        53.9920  -27.6510   38.5720 C.3       1 AC7556      0.0000 
     30 C25        49.1610  -35.8510   41.8700 C.3       1 AC7556      0.0000 
     31 O35        52.9960  -28.7190   35.9900 O.2       1 AC7556      0.0000 
     32 O36        49.5160  -33.5310   40.5610 O.2       1 AC7556      0.0000 
     33 O37        50.9150  -25.6540   37.5960 O.2       1 AC7556      0.0000 
     34 N69        48.1740  -32.3420   34.8860 N.1       1 AC7556      0.0000 
     35 N74        44.0190  -30.3670   43.9280 N.1       1 AC7556      0.0000 
     36 C77        48.6020  -31.5380   35.5970 C.1       1 AC7556      0.0000 
     37 C82        44.9210  -30.5790   43.2150 C.1       1 AC7556      0.0000 
     38 H          50.4417  -28.0700   38.9109 H         1 AC7556      0.0000 
     39 H          47.3963  -30.7168   37.6446 H         1 AC7556      0.0000 
     40 H          46.7854  -27.3545   40.6173 H         1 AC7556      0.0000 
     41 H          45.8092  -28.8978   41.4820 H         1 AC7556      0.0000 
     42 H          48.9174  -31.3426   40.0009 H         1 AC7556      0.0000 
     43 H          46.7851  -25.7812   38.8268 H         1 AC7556      0.0000 
     44 H          47.8988  -26.7773   37.8743 H         1 AC7556      0.0000 
     45 H          49.7396  -26.2008   39.4008 H         1 AC7556      0.0000 
     46 H          48.6307  -25.2326   40.3872 H         1 AC7556      0.0000 
     47 H          49.1249  -23.4897   39.0563 H         1 AC7556      0.0000 
     48 H          48.2112  -24.3147   37.7817 H         1 AC7556      0.0000 
     49 H          52.8855  -23.7343   36.8040 H         1 AC7556      0.0000 
     50 H          52.0838  -24.1893   35.4863 H         1 AC7556      0.0000 
     51 H          52.3407  -22.6278   35.7721 H         1 AC7556      0.0000 
     52 H          51.1932  -28.9066   33.7679 H         1 AC7556      0.0000 
     53 H          51.6408  -30.2945   33.0899 H         1 AC7556      0.0000 
     54 H          50.0870  -30.0125   33.3943 H         1 AC7556      0.0000 
     55 H          45.5165  -34.5396   42.1004 H         1 AC7556      0.0000 
     56 H          45.0859  -34.7057   43.6409 H         1 AC7556      0.0000 
     57 H          44.3846  -33.5840   42.7265 H         1 AC7556      0.0000 
     58 H          54.7433  -27.6533   37.9120 H         1 AC7556      0.0000 
     59 H          54.1772  -26.9162   39.2245 H         1 AC7556      0.0000 
     60 H          54.0437  -28.5121   39.0779 H         1 AC7556      0.0000 
     61 H          50.1509  -35.7206   41.8142 H         1 AC7556      0.0000 
     62 H          48.9995  -36.5953   42.5180 H         1 AC7556      0.0000 
     63 H          48.8567  -36.1720   40.9731 H         1 AC7556      0.0000 
@<TRIPOS>BOND
     1    3    1 ar   
     2   10    1 ar   
     3   38    1 1    
     4    5    2 1    
     5   27    2 1    
     6    5    3 ar   
     7   11    3 1    
     8   15    4 1    
     9   28    4 1    
    10    7    5 ar   
    11   25    6 1    
    12   26    6 1    
    13    8    7 ar   
    14   36    7 1    
    15   10    8 ar   
    16   39    8 1    
    17   11    9 1    
    18   29    9 1    
    19   13   10 1    
    20   31   11 2    
    21   21   12 1    
    22   30   12 1    
    23   14   13 2    
    24   18   13 1    
    25   22   14 1    
    26   40   14 1    
    27   16   15 ar   
    28   20   15 ar   
    29   17   16 ar   
    30   37   16 1    
    31   18   17 ar   
    32   41   17 1    
    33   19   18 ar   
    34   20   19 ar   
    35   42   19 1    
    36   21   20 1    
    37   32   21 2    
    38   23   22 1    
    39   43   22 1    
    40   44   22 1    
    41   24   23 1    
    42   45   23 1    
    43   46   23 1    
    44   25   24 1    
    45   47   24 1    
    46   48   24 1    
    47   33   25 2    
    48   49   26 1    
    49   50   26 1    
    50   51   26 1    
    51   52   27 1    
    52   53   27 1    
    53   54   27 1    
    54   55   28 1    
    55   56   28 1    
    56   57   28 1    
    57   58   29 1    
    58   59   29 1    
    59   60   29 1    
    60   61   30 1    
    61   62   30 1    
    62   63   30 1    
    63   36   34 3    
    64   37   35 3    
@<TRIPOS>SUBSTRUCTURE
     1 AC7556      1 GROUP   
@<TRIPOS>SET

