#    Name: 2qmy_AD1_1_INTS_M
#    Modification time : Mon Mar 24 22:31:32 2014

@<TRIPOS>MOLECULE
2qmy_AD1_1_INTS_M
   12     0     3     0     0
SMALL
NO_CHARGES


@<TRIPOS>ATOM
      1 CA         14.0570  -17.2970   31.5210 C.3       1 GLC5        0.0000 
      2 CA         14.2440  -16.2070   30.0270 C.3       3 GLL5        0.0000 
      3 CA         13.8700  -18.3870   33.0150 C.3       2 GLP5        0.0000 
      4 CA         14.8570  -16.8235   32.3860 C.3       1 GLC5        0.0000 
      5 CA         15.8440  -15.2600   31.7570 C.3       3 GLL5        0.0000 
      6 CA         14.8540  -15.7440   33.7820 C.3       1 GLC5        0.0000 
      7 CA         15.0570  -14.3530   32.5430 C.3       3 GLL5        0.0000 
      8 CA         14.6510  -17.1350   35.0210 C.3       2 GLP5        0.0000 
      9 CA         16.0515  -16.2460   33.9030 C.3       1 GLC5        0.0000 
     10 CA         17.1700  -15.6200   32.1850 C.3       3 GLL5        0.0000 
     11 CA         17.3405  -17.9706   31.7506 C.3       1 GLC5        0.0000 
     12 CA         17.4490  -19.9000   32.1360 C.3       2 GLP5        0.0000 
@<TRIPOS>BOND
@<TRIPOS>SUBSTRUCTURE
     1 GLC5        1 GROUP        1 X    GLC  0     ROOT GLC X 6
     2 GLP5        3 GROUP        1 Y    GLP  0     ROOT GLP Y 13
     3 GLL5        2 GROUP        1 Z    GLL  0     ROOT GLL Z 20
@<TRIPOS>SET

