#    Name: 2qmy_AD1_1_ligand
#    Modification time : Mon Mar 24 22:31:32 2014

@<TRIPOS>MOLECULE
2qmy_AD1_1_ligand
   23    24     1     0     0
SMALL
NO_CHARGES


@<TRIPOS>ATOM
      1 CAG        16.8430  -16.3340   29.9440 C.3       1 AD1501      0.0000 
      2 NAM        15.5910  -15.9130   30.5990 N.4       1 AD1501      0.0000 
      3 CAA        14.2440  -16.2070   30.0270 C.3       1 AD1501      0.0000 
      4 CAI        15.8440  -15.2600   31.7570 C.2       1 AD1501      0.0000 
      5 CAF        15.0570  -14.3530   32.5430 C.2       1 AD1501      0.0000 
      6 CAK        15.6160  -13.8200   33.7490 C.2       1 AD1501      0.0000 
      7 OAC        14.9210  -13.0450   34.4070 O.2       1 AD1501      0.0000 
      8 CAJ        16.9510  -14.1910   34.1710 C.2       1 AD1501      0.0000 
      9 OAB        17.4530  -13.7490   35.2070 O.2       1 AD1501      0.0000 
     10 CAE        17.7340  -15.0940   33.3850 C.2       1 AD1501      0.0000 
     11 CAH        17.1700  -15.6200   32.1850 C.2       1 AD1501      0.0000 
     12 CAL        17.7450  -16.5910   31.1470 C.3       1 AD1501      0.0000 
     13 OAD        19.1070  -16.2600   30.8060 O.3       1 AD1501      0.0000 
     14 H          17.2541  -15.5513   29.3622 H         1 AD1501      0.0000 
     15 H          16.7115  -17.2376   29.4088 H         1 AD1501      0.0000 
     16 H          15.6605  -14.6725   29.8651 H         1 AD1501      0.0000 
     17 H          14.1295  -14.0971   32.2509 H         1 AD1501      0.0000 
     18 H          18.6621  -15.3514   33.6738 H         1 AD1501      0.0000 
     19 H          17.6011  -17.5696   31.4748 H         1 AD1501      0.0000 
     20 H          14.1281  -15.7993   29.1213 H         1 AD1501      0.0000 
     21 H          14.0890  -17.1899   29.9280 H         1 AD1501      0.0000 
     22 H          13.5094  -15.8512   30.6048 H         1 AD1501      0.0000 
     23 H          19.3327  -16.8555   30.0350 H         1 AD1501      0.0000 
@<TRIPOS>BOND
     1    2    1 1    
     2   12    1 1    
     3   14    1 1    
     4   15    1 1    
     5    3    2 1    
     6    4    2 1    
     7   16    2 1    
     8   20    3 1    
     9   21    3 1    
    10   22    3 1    
    11    5    4 2    
    12   11    4 1    
    13    6    5 1    
    14   17    5 1    
    15    7    6 2    
    16    8    6 1    
    17    9    8 2    
    18   10    8 1    
    19   11   10 2    
    20   18   10 1    
    21   12   11 1    
    22   13   12 1    
    23   19   12 1    
    24   23   13 1    
@<TRIPOS>SUBSTRUCTURE
     1 AD1501      1 GROUP   
@<TRIPOS>SET

