#    Name: 4fk3_325_1_INTS_M
#    Modification time : Mon Mar 24 20:11:49 2014

@<TRIPOS>MOLECULE
4fk3_325_1_INTS_M
   66     0     9     0     0
SMALL
NO_CHARGES


@<TRIPOS>ATOM
      1 CA         -0.9380   47.4160   19.7605 C.3       3 GLC5        0.0000 
      2 CA          0.2490   48.5180   20.4710 C.3       9 GLL5        0.0000 
      3 CA         -2.1250   46.3140   19.0500 C.3       6 GLP5        0.0000 
      4 CA          1.1305   46.9825   19.4805 C.3       3 GLC5        0.0000 
      5 CA          2.0120   45.4470   18.4900 C.3       6 GLP5        0.0000 
      6 CA          6.3440   50.6770   18.8285 C.3       3 GLC5        0.0000 
      7 CA          4.6480   49.8750   18.6080 C.3       9 GLL5        0.0000 
      8 CA          8.0400   51.4790   19.0490 C.3       6 GLP5        0.0000 
      9 CA          4.9820   51.9145   19.3065 C.3       3 GLC5        0.0000 
     10 CA          5.3160   53.9540   20.0050 C.3       6 GLP5        0.0000 
     11 CA          3.6150   51.4375   17.9455 C.3       3 GLC5        0.0000 
     12 CA          2.5820   53.0000   17.2830 C.3       6 GLP5        0.0000 
     13 CA          6.5285   49.0215   17.8390 C.3       3 GLC5        0.0000 
     14 CA          4.6920   48.8930   17.4520 C.3       9 GLL5        0.0000 
     15 CA          8.3650   49.1500   18.2260 C.3       6 GLP5        0.0000 
     16 CA          3.3520   47.1700   17.9710 C.3       3 GLC5        0.0000 
     17 CA          5.3520   47.1500   17.1255 C.3       3 GLC5        0.0000 
     18 CA          6.0120   45.4070   16.7990 C.3       6 GLP5        0.0000 
     19 N           5.3455   46.4240   20.5795 N.am      2 SEC2        0.0000 
     20 N           5.1530   47.7700   19.9550 N.am      8 SEL2        0.0000 
     21 N           5.5380   45.0780   21.2040 N.am      5 SEP2        0.0000 
     22 N           6.3890   47.2010   20.8555 N.am      2 SEC2        0.0000 
     23 N           7.6250   46.6320   21.7560 N.am      5 SEP2        0.0000 
     24 CA         -5.1305   50.4045   16.6585 C.3       3 GLC5        0.0000 
     25 CA         -4.1740   51.2030   18.2790 C.3       9 GLL5        0.0000 
     26 CA         -6.0870   49.6060   15.0380 C.3       6 GLP5        0.0000 
     27 O          -2.6695   52.5595   16.5420 O.2       1 ALC1        0.0000 
     28 O          -3.0600   51.6090   17.7580 O.2       7 ALL1        0.0000 
     29 O          -2.2790   53.5100   15.3260 O.2       4 ALP1        0.0000 
     30 N          -5.6965   51.6325   16.2840 N.am      2 SEC2        0.0000 
     31 N          -5.4410   51.2150   17.7540 N.am      8 SEL2        0.0000 
     32 N          -5.9520   52.0500   14.8140 N.am      5 SEP2        0.0000 
     33 CA         -6.3070   50.1645   16.7600 C.3       3 GLC5        0.0000 
     34 CA         -6.5270   50.7230   18.4820 C.3       9 GLL5        0.0000 
     35 CA         -8.7885   50.4870   22.8360 C.3       3 GLC5        0.0000 
     36 CA         -9.7240   48.7610   21.9020 C.3       9 GLL5        0.0000 
     37 CA         -7.8530   52.2130   23.7700 C.3       6 GLP5        0.0000 
     38 CA          1.2275   50.5025   22.6415 C.3       3 GLC5        0.0000 
     39 CA         -0.2450   50.7950   20.8440 C.3       9 GLL5        0.0000 
     40 CA          2.2320   50.7180   24.5530 C.3       6 GLP5        0.0000 
     41 CA          0.3640   49.4498   18.8648 C.3       3 GLC5        0.0000 
     42 CA          0.6910   49.7790   20.6160 C.3       9 GLL5        0.0000 
     43 CA          0.4920   49.4970   17.1290 C.3       6 GLP5        0.0000 
     44 CA          2.2527   50.7085   22.5847 C.3       3 GLC5        0.0000 
     45 CA          2.0770   50.0260   20.5350 C.3       9 GLL5        0.0000 
     46 CA          1.3828   50.0980   18.8727 C.3       3 GLC5        0.0000 
     47 CA          2.4700   51.3720   20.6980 C.3       9 GLL5        0.0000 
     48 CA          2.5810   49.4405   17.5795 C.3       3 GLC5        0.0000 
     49 CA          3.6620   52.9198   20.4073 C.3       3 GLC5        0.0000 
     50 CA          2.2459   52.2745   19.0259 C.3       3 GLC5        0.0000 
     51 CA          1.5460   52.3990   20.9210 C.3       9 GLL5        0.0000 
     52 CA         -1.8842   53.0005   22.0902 C.3       3 GLC5        0.0000 
     53 CA          0.1940   52.1050   20.9950 C.3       9 GLL5        0.0000 
     54 CA         -3.5290   53.3970   23.0780 C.3       6 GLP5        0.0000 
     55 CA         -1.3962   53.6865   19.8997 C.3       3 GLC5        0.0000 
     56 CA         -0.6730   53.1030   21.2100 C.3       9 GLL5        0.0000 
     57 CA         -2.5530   54.7690   18.6970 C.3       6 GLP5        0.0000 
     58 CA          0.9967   53.3293   22.5015 C.3       3 GLC5        0.0000 
     59 CA          1.8950   53.9810   23.9190 C.3       6 GLP5        0.0000 
     60 CA         -0.9207   50.3070   18.1680 C.3       3 GLC5        0.0000 
     61 CA         -2.1020   51.4000   18.6260 C.3       9 GLL5        0.0000 
     62 CA         -3.8413   51.9325   21.5506 C.3       3 GLC5        0.0000 
     63 CA         -2.5650   50.8340   19.7880 C.3       9 GLL5        0.0000 
     64 CA         -2.7305   52.9794   18.7523 C.3       3 GLC5        0.0000 
     65 CA         -7.9807   51.1288   22.1790 C.3       3 GLC5        0.0000 
     66 CA         -7.5110   49.6880   20.5310 C.3       9 GLL5        0.0000 
@<TRIPOS>BOND
@<TRIPOS>SUBSTRUCTURE
     1 ALC1       27 GROUP        1 X    ALC  0     ROOT ALC X 1
     2 SEC2       19 GROUP        1 X    SEC  0     **** SEC X 2
     3 GLC5        1 GROUP        1 X    GLC  0     **** GLC X 6
     4 ALP1       29 GROUP        1 Y    ALP  0     ROOT ALP Y 8
     5 SEP2       21 GROUP        1 Y    SEP  0     **** SEP Y 9
     6 GLP5        3 GROUP        1 Y    GLP  0     **** GLP Y 13
     7 ALL1       28 GROUP        1 Z    ALL  0     ROOT ALL Z 15
     8 SEL2       20 GROUP        1 Z    SEL  0     **** SEL Z 16
     9 GLL5        2 GROUP        1 Z    GLL  0     **** GLL Z 20
@<TRIPOS>SET

