#    Name: 4fk3_325_1_ligand
#    Modification time : Mon Mar 24 20:11:49 2014

@<TRIPOS>MOLECULE
4fk3_325_1_ligand
   47    50     1     0     0
SMALL
NO_CHARGES


@<TRIPOS>ATOM
      1 O30        -2.1460   49.9840   21.9290 O.2       1 325801      0.0000 
      2 C16        -1.6870   50.5030   20.9170 C.2       1 325801      0.0000 
      3 C17        -0.2450   50.7950   20.8440 C.ar      1 325801      0.0000 
      4 C22         0.6910   49.7790   20.6160 C.ar      1 325801      0.0000 
      5 F28         0.2490   48.5180   20.4710 F         1 325801      0.0000 
      6 C21         2.0770   50.0260   20.5350 C.ar      1 325801      0.0000 
      7 N23         2.8970   48.9660   20.3110 N.pl3     1 325801      0.0000 
      8 S24         4.4840   49.0460   20.1910 S.o2      1 325801      0.0000 
      9 C26         4.6480   49.8750   18.6080 C.3       1 325801      0.0000 
     10 C31         4.6920   48.8930   17.4520 C.3       1 325801      0.0000 
     11 O27         5.1530   47.7700   19.9550 O.2       1 325801      0.0000 
     12 O25         5.1480   49.9280   21.1460 O.2       1 325801      0.0000 
     13 C20         2.4700   51.3720   20.6980 C.ar      1 325801      0.0000 
     14 C19         1.5460   52.3990   20.9210 C.ar      1 325801      0.0000 
     15 C18         0.1940   52.1050   20.9950 C.ar      1 325801      0.0000 
     16 F29        -0.6730   53.1030   21.2100 F         1 325801      0.0000 
     17 C13        -2.5650   50.8340   19.7880 C.2       1 325801      0.0000 
     18 C11        -3.9430   50.6780   19.6110 C.ar      1 325801      0.0000 
     19 C12        -5.0530   50.1800   20.3470 C.ar      1 325801      0.0000 
     20 C10        -4.1740   51.2030   18.2790 C.ar      1 325801      0.0000 
     21 N15        -3.0600   51.6090   17.7580 N.pl3     1 325801      0.0000 
     22 C14        -2.1020   51.4000   18.6260 C.2       1 325801      0.0000 
     23 N9         -5.4410   51.2150   17.7540 N.ar      1 325801      0.0000 
     24 C8         -6.5270   50.7230   18.4820 C.ar      1 325801      0.0000 
     25 C7         -6.3460   50.2050   19.7830 C.ar      1 325801      0.0000 
     26 C6         -7.5110   49.6880   20.5310 C.ar      1 325801      0.0000 
     27 C5         -8.7060   50.4010   20.6450 C.ar      1 325801      0.0000 
     28 N4         -9.8060   49.9730   21.3130 N.ar      1 325801      0.0000 
     29 C3         -9.7240   48.7610   21.9020 C.ar      1 325801      0.0000 
     30 C2         -8.5980   47.9600   21.8560 C.ar      1 325801      0.0000 
     31 C1         -7.4880   48.4340   21.1600 C.ar      1 325801      0.0000 
     32 H           2.5503   47.9894   20.1962 H         1 325801      0.0000 
     33 H           5.5550   50.4350   18.7288 H         1 325801      0.0000 
     34 H           3.7904   50.5192   18.5901 H         1 325801      0.0000 
     35 H           3.4825   51.6031   20.6498 H         1 325801      0.0000 
     36 H           1.8750   53.3652   21.0286 H         1 325801      0.0000 
     37 H          -4.9090   49.8045   21.2852 H         1 325801      0.0000 
     38 H          -2.9446   52.0063   16.8665 H         1 325801      0.0000 
     39 H          -1.1403   51.6144   18.4917 H         1 325801      0.0000 
     40 H          -7.4700   50.7353   18.0723 H         1 325801      0.0000 
     41 H          -8.7407   51.3541   20.1641 H         1 325801      0.0000 
     42 H         -10.5651   48.3898   22.4342 H         1 325801      0.0000 
     43 H          -8.5757   47.0544   22.3132 H         1 325801      0.0000 
     44 H          -6.6334   47.8569   21.1038 H         1 325801      0.0000 
     45 H           4.7862   49.3590   16.5722 H         1 325801      0.0000 
     46 H           5.4616   48.2594   17.5320 H         1 325801      0.0000 
     47 H           3.8606   48.3395   17.4030 H         1 325801      0.0000 
@<TRIPOS>BOND
     1    2    1 2    
     2    3    2 1    
     3   17    2 1    
     4    4    3 ar   
     5   15    3 ar   
     6    5    4 1    
     7    6    4 ar   
     8    7    6 1    
     9   13    6 ar   
    10    8    7 1    
    11   32    7 1    
    12    9    8 1    
    13   11    8 2    
    14   12    8 2    
    15   10    9 1    
    16   33    9 1    
    17   34    9 1    
    18   45   10 1    
    19   46   10 1    
    20   47   10 1    
    21   14   13 ar   
    22   35   13 1    
    23   15   14 ar   
    24   36   14 1    
    25   16   15 1    
    26   18   17 1    
    27   22   17 2    
    28   19   18 ar   
    29   20   18 ar   
    30   25   19 ar   
    31   37   19 1    
    32   21   20 1    
    33   23   20 ar   
    34   22   21 1    
    35   38   21 1    
    36   39   22 1    
    37   24   23 ar   
    38   25   24 ar   
    39   40   24 1    
    40   26   25 1    
    41   27   26 ar   
    42   31   26 ar   
    43   28   27 ar   
    44   41   27 1    
    45   29   28 ar   
    46   30   29 ar   
    47   42   29 1    
    48   31   30 ar   
    49   43   30 1    
    50   44   31 1    
@<TRIPOS>SUBSTRUCTURE
     1 325801      1 GROUP   
@<TRIPOS>SET

