#    Name: 3of2_NAD_1_INTS_M
#    Modification time : Tue Mar 25 04:29:38 2014

@<TRIPOS>MOLECULE
3of2_NAD_1_INTS_M
   92     0     9     0     0
SMALL
NO_CHARGES


@<TRIPOS>ATOM
      1 N          -1.5255  -35.1195   10.6600 N.am      2 SEC2        0.0000 
      2 N          -0.2760  -34.6240   10.5060 N.am      8 SEL2        0.0000 
      3 N          -2.7750  -35.6150   10.8140 N.am      5 SEP2        0.0000 
      4 CA          0.9305  -32.2340   16.1980 C.3       3 GLC5        0.0000 
      5 CA         -0.1430  -31.9970   14.4040 C.3       9 GLL5        0.0000 
      6 CA          2.0040  -32.4710   17.9920 C.3       6 GLP5        0.0000 
      7 N           1.9165  -31.0980   15.9450 N.am      2 SEC2        0.0000 
      8 N           0.3170  -30.9840   15.2910 N.am      8 SEL2        0.0000 
      9 N           3.5160  -31.2120   16.5990 N.am      5 SEP2        0.0000 
     10 CA         -2.1600  -31.9045   12.0065 C.3       3 GLC5        0.0000 
     11 CA         -1.3060  -31.4020   13.6020 C.3       9 GLL5        0.0000 
     12 CA         -3.0140  -32.4070   10.4110 C.3       6 GLP5        0.0000 
     13 O          -2.4860  -33.4465   14.1785 O.2       1 ALC1        0.0000 
     14 O          -2.5140  -32.0410   13.9380 O.2       7 ALL1        0.0000 
     15 O          -2.4580  -34.8520   14.4190 O.2       4 ALP1        0.0000 
     16 CA         -2.8100  -30.9035   12.6295 C.3       3 GLC5        0.0000 
     17 CA         -1.4090  -29.9830   14.0950 C.3       9 GLL5        0.0000 
     18 CA         -4.2110  -31.8240   11.1640 C.3       6 GLP5        0.0000 
     19 CA          0.4295  -30.1315   17.2180 C.3       3 GLC5        0.0000 
     20 CA         -0.7650  -30.0960   15.4790 C.3       9 GLL5        0.0000 
     21 CA          1.6240  -30.1670   18.9570 C.3       6 GLP5        0.0000 
     22 CA         -2.5235  -25.6840   19.8610 C.3       3 GLC5        0.0000 
     23 CA         -0.8530  -26.2640   18.4950 C.3       9 GLL5        0.0000 
     24 CA         -4.1940  -25.1040   21.2270 C.3       6 GLP5        0.0000 
     25 CA         -0.0425  -26.5340   20.1925 C.3       3 GLC5        0.0000 
     26 CA          0.7680  -26.8040   21.8900 C.3       6 GLP5        0.0000 
     27 O          -1.4135  -24.1030   19.5935 O.2       1 ALC1        0.0000 
     28 O          -0.5430  -24.9780   18.6290 O.2       7 ALL1        0.0000 
     29 O          -2.2840  -23.2280   20.5580 O.2       4 ALP1        0.0000 
     30 N          -1.8925  -26.3310   20.8170 N.am      2 SEC2        0.0000 
     31 N          -1.7020  -26.8360   19.4100 N.am      8 SEL2        0.0000 
     32 N          -2.0830  -25.8260   22.2240 N.am      5 SEP2        0.0000 
     33 CA         -3.3890  -27.7810   18.0720 C.3       3 GLC5        0.0000 
     34 CA         -2.1790  -28.1160   19.2210 C.3       9 GLL5        0.0000 
     35 CA         -4.5990  -27.4460   16.9230 C.3       6 GLP5        0.0000 
     36 CA         -3.1865  -26.6100   20.2240 C.3       3 GLC5        0.0000 
     37 CA         -1.4890  -28.2780   21.1170 C.3       3 GLC5        0.0000 
     38 CA         -0.7990  -28.4400   23.0130 C.3       6 GLP5        0.0000 
     39 CA         -1.4320  -29.6975   19.8975 C.3       3 GLC5        0.0000 
     40 CA         -0.6850  -31.2790   20.5740 C.3       6 GLP5        0.0000 
     41 N           0.7340  -37.8675   11.7715 N.am      2 SEC2        0.0000 
     42 N           1.5390  -36.6590   11.9820 N.am      8 SEL2        0.0000 
     43 N          -0.0710  -39.0760   11.5610 N.am      5 SEP2        0.0000 
     44 CA          1.6865  -36.4960   16.0255 C.3       3 GLC5        0.0000 
     45 CA          2.8620  -35.8000   14.3530 C.3       9 GLL5        0.0000 
     46 CA          0.5110  -37.1920   17.6980 C.3       6 GLP5        0.0000 
     47 CA          2.7355  -36.0375   16.8445 C.3       3 GLC5        0.0000 
     48 CA          4.0990  -35.9080   15.2480 C.3       9 GLL5        0.0000 
     49 CA          1.3720  -36.1670   18.4410 C.3       6 GLP5        0.0000 
     50 CA          4.8675  -32.6480   15.7395 C.3       3 GLC5        0.0000 
     51 CA          4.9330  -34.6300   15.2640 C.3       9 GLL5        0.0000 
     52 CA          4.8020  -30.6660   16.2150 C.3       6 GLP5        0.0000 
     53 N           6.9845  -34.4170   16.8570 N.am      2 SEC2        0.0000 
     54 N           5.4900  -34.4490   16.5580 N.am      8 SEL2        0.0000 
     55 N           8.4790  -34.3850   17.1560 N.am      5 SEP2        0.0000 
     56 N           5.1755  -34.9040   17.9900 N.am      2 SEC2        0.0000 
     57 N           4.8610  -35.3590   19.4220 N.am      5 SEP2        0.0000 
     58 O           4.9155  -33.3450   17.4875 O.2       1 ALC1        0.0000 
     59 O           5.4900  -34.4490   16.5580 O.2       7 ALL1        0.0000 
     60 O           4.3410  -32.2410   18.4170 O.2       4 ALP1        0.0000 
     61 CA          7.9255  -34.5355   15.4080 C.3       3 GLC5        0.0000 
     62 CA          6.0630  -34.9600   14.3080 C.3       9 GLL5        0.0000 
     63 CA          9.7880  -34.1110   16.5080 C.3       6 GLP5        0.0000 
     64 N           7.8455  -34.2865   15.8625 N.am      2 SEC2        0.0000 
     65 N           7.2120  -34.1880   14.5690 N.am      8 SEL2        0.0000 
     66 CA          5.8285  -37.4015   16.1525 C.3       3 GLC5        0.0000 
     67 CA          6.2640  -36.4270   14.6340 C.3       9 GLL5        0.0000 
     68 CA          5.3930  -38.3760   17.6710 C.3       6 GLP5        0.0000 
     69 N           7.9315  -39.1835    8.2890 N.am      2 SEC2        0.0000 
     70 N           8.1890  -38.0480    8.9950 N.am      8 SEL2        0.0000 
     71 N           7.6740  -40.3190    7.5830 N.am      5 SEP2        0.0000 
     72 O           5.9170  -37.9100    7.9555 O.2       1 ALC1        0.0000 
     73 O           5.9770  -37.3040    9.4540 O.2       7 ALL1        0.0000 
     74 O           5.8570  -38.5160    6.4570 O.2       4 ALP1        0.0000 
     75 CA         -1.6262  -33.0172   15.3800 C.3       3 GLC5        0.0000 
     76 CA         -2.5280  -34.3350   16.7570 C.3       6 GLP5        0.0000 
     77 CA          0.4515  -28.8990   18.1215 C.3       3 GLC5        0.0000 
     78 CA         -0.9660  -28.2740   17.2020 C.3       9 GLL5        0.0000 
     79 CA         -2.7071  -27.4480   17.2451 C.3       3 GLC5        0.0000 
     80 CA         -0.4760  -26.9880   17.3700 C.3       9 GLL5        0.0000 
     81 CA          1.1894  -27.2550   17.9641 C.3       3 GLC5        0.0000 
     82 CA          3.1940  -27.0600   18.3610 C.3       6 GLP5        0.0000 
     83 CA          4.9545  -36.8225   16.4635 C.3       3 GLC5        0.0000 
     84 CA          5.6738  -38.5545   12.0770 C.3       3 GLC5        0.0000 
     85 CA          6.7680  -37.0380   12.2880 C.3       9 GLL5        0.0000 
     86 CA          4.2030  -39.7230   12.3310 C.3       6 GLP5        0.0000 
     87 CA          8.4430  -40.5718   13.0950 C.3       3 GLC5        0.0000 
     88 CA          8.8520  -38.6670   13.1580 C.3       9 GLL5        0.0000 
     89 CA          8.1740  -42.5360   13.7150 C.3       6 GLP5        0.0000 
     90 CA         10.1997  -37.6361   13.6430 C.3       3 GLC5        0.0000 
     91 CA          8.5720  -38.5480   11.7920 C.3       9 GLL5        0.0000 
     92 CA         12.0020  -36.9910   14.0140 C.3       6 GLP5        0.0000 
@<TRIPOS>BOND
@<TRIPOS>SUBSTRUCTURE
     1 ALC1       13 GROUP        1 X    ALC  0     ROOT ALC X 1
     2 SEC2        1 GROUP        1 X    SEC  0     **** SEC X 2
     3 GLC5        4 GROUP        1 X    GLC  0     **** GLC X 6
     4 ALP1       15 GROUP        1 Y    ALP  0     ROOT ALP Y 8
     5 SEP2        3 GROUP        1 Y    SEP  0     **** SEP Y 9
     6 GLP5        6 GROUP        1 Y    GLP  0     **** GLP Y 13
     7 ALL1       14 GROUP        1 Z    ALL  0     ROOT ALL Z 15
     8 SEL2        2 GROUP        1 Z    SEL  0     **** SEL Z 16
     9 GLL5        5 GROUP        1 Z    GLL  0     **** GLL Z 20
@<TRIPOS>SET

