#    Name: 3of2_NAD_1_ligand
#    Modification time : Tue Mar 25 04:29:38 2014

@<TRIPOS>MOLECULE
3of2_NAD_1_ligand
   70    74     1     0     0
SMALL
NO_CHARGES


@<TRIPOS>ATOM
      1 PA          0.7010  -33.6980   11.1090 P.3       1 NAD4345     0.0000 
      2 O1A         0.7440  -32.3810   10.4440 O.co2     1 NAD4345     0.0000 
      3 O2A        -0.2760  -34.6240   10.5060 O.co2     1 NAD4345     0.0000 
      4 O5B         0.3740  -33.4930   12.6750 O.3       1 NAD4345     0.0000 
      5 C5B         0.9530  -32.4680   13.4520 C.3       1 NAD4345     0.0000 
      6 C4B        -0.1430  -31.9970   14.4040 C.3       1 NAD4345     0.0000 
      7 O4B         0.3170  -30.9840   15.2910 O.3       1 NAD4345     0.0000 
      8 C3B        -1.3060  -31.4020   13.6020 C.3       1 NAD4345     0.0000 
      9 O3B        -2.5140  -32.0410   13.9380 O.3       1 NAD4345     0.0000 
     10 C2B        -1.4090  -29.9830   14.0950 C.3       1 NAD4345     0.0000 
     11 O2B        -2.7610  -29.6120   14.1600 O.3       1 NAD4345     0.0000 
     12 C1B        -0.7650  -30.0960   15.4790 C.3       1 NAD4345     0.0000 
     13 N9A        -0.4460  -28.7650   16.0330 N.pl3     1 NAD4345     0.0000 
     14 C8A         0.3400  -27.7810   15.4830 C.2       1 NAD4345     0.0000 
     15 N7A         0.3250  -26.7100   16.3090 N.2       1 NAD4345     0.0000 
     16 C5A        -0.4760  -26.9880   17.3700 C.ar      1 NAD4345     0.0000 
     17 C6A        -0.8530  -26.2640   18.4950 C.ar      1 NAD4345     0.0000 
     18 N6A        -0.5430  -24.9780   18.6290 N.pl3     1 NAD4345     0.0000 
     19 N1A        -1.7020  -26.8360   19.4100 N.ar      1 NAD4345     0.0000 
     20 C2A        -2.1790  -28.1160   19.2210 C.ar      1 NAD4345     0.0000 
     21 N3A        -1.8040  -28.8280   18.1130 N.ar      1 NAD4345     0.0000 
     22 C4A        -0.9660  -28.2740   17.2020 C.ar      1 NAD4345     0.0000 
     23 O3          2.2030  -34.3000   11.1050 O.3       1 NAD4345     0.0000 
     24 PN          2.6610  -35.7360   11.7060 P.3       1 NAD4345     0.0000 
     25 O1N         3.7950  -36.1860   10.8620 O.co2     1 NAD4345     0.0000 
     26 O2N         1.5390  -36.6590   11.9820 O.co2     1 NAD4345     0.0000 
     27 O5D         3.2740  -35.2520   13.1130 O.3       1 NAD4345     0.0000 
     28 C5D         2.8620  -35.8000   14.3530 C.3       1 NAD4345     0.0000 
     29 C4D         4.0990  -35.9080   15.2480 C.3       1 NAD4345     0.0000 
     30 O4D         4.9440  -36.9280   14.7270 O.3       1 NAD4345     0.0000 
     31 C3D         4.9330  -34.6300   15.2640 C.3       1 NAD4345     0.0000 
     32 O3D         5.4900  -34.4490   16.5580 O.3       1 NAD4345     0.0000 
     33 C2D         6.0630  -34.9600   14.3080 C.3       1 NAD4345     0.0000 
     34 O2D         7.2120  -34.1880   14.5690 O.3       1 NAD4345     0.0000 
     35 C1D         6.2640  -36.4270   14.6340 C.3       1 NAD4345     0.0000 
     36 N1N         7.0600  -37.1560   13.6300 N.pl3     1 NAD4345     0.0000 
     37 C2N         6.7680  -37.0380   12.2880 C.ar      1 NAD4345     0.0000 
     38 C3N         7.5210  -37.7340   11.3580 C.ar      1 NAD4345     0.0000 
     39 C7N         7.1850  -37.6780    9.8900 C.2       1 NAD4345     0.0000 
     40 O7N         8.1890  -38.0480    8.9950 O.2       1 NAD4345     0.0000 
     41 N7N         5.9770  -37.3040    9.4540 N.am      1 NAD4345     0.0000 
     42 C4N         8.5720  -38.5480   11.7920 C.ar      1 NAD4345     0.0000 
     43 C5N         8.8520  -38.6670   13.1580 C.ar      1 NAD4345     0.0000 
     44 C6N         8.0830  -37.9550   14.0690 C.ar      1 NAD4345     0.0000 
     45 H           1.2628  -31.6185   12.8559 H         1 NAD4345     0.0000 
     46 H           1.7846  -32.8188   14.0505 H         1 NAD4345     0.0000 
     47 H          -0.5263  -32.8488   14.9420 H         1 NAD4345     0.0000 
     48 H          -1.0721  -31.4050   12.5898 H         1 NAD4345     0.0000 
     49 H          -0.8016  -29.3748   13.4919 H         1 NAD4345     0.0000 
     50 H          -1.5356  -30.5809   16.1085 H         1 NAD4345     0.0000 
     51 H           0.8149  -27.8537   14.6514 H         1 NAD4345     0.0000 
     52 H          -1.2009  -24.4168   19.1314 H         1 NAD4345     0.0000 
     53 H           0.3200  -24.6880   18.2153 H         1 NAD4345     0.0000 
     54 H          -2.8183  -28.5335   19.9170 H         1 NAD4345     0.0000 
     55 H           2.4434  -36.7995   14.2448 H         1 NAD4345     0.0000 
     56 H           2.1376  -35.1677   14.8643 H         1 NAD4345     0.0000 
     57 H           3.7949  -36.1355   16.2465 H         1 NAD4345     0.0000 
     58 H           4.3810  -33.8423   14.9011 H         1 NAD4345     0.0000 
     59 H           5.6853  -34.8918   13.3228 H         1 NAD4345     0.0000 
     60 H           6.7419  -36.4739   15.6079 H         1 NAD4345     0.0000 
     61 H           5.9938  -36.4355   11.9760 H         1 NAD4345     0.0000 
     62 H           5.3075  -37.0705   10.1592 H         1 NAD4345     0.0000 
     63 H           5.8517  -37.2915    8.4620 H         1 NAD4345     0.0000 
     64 H           9.1401  -39.0600   11.1069 H         1 NAD4345     0.0000 
     65 H           9.6119  -39.2700   13.4753 H         1 NAD4345     0.0000 
     66 H           8.2891  -38.0334   15.0782 H         1 NAD4345     0.0000 
     67 H          -2.2463  -32.8154   14.5113 H         1 NAD4345     0.0000 
     68 H          -3.2659  -30.4751   14.1689 H         1 NAD4345     0.0000 
     69 H           5.3847  -33.4735   16.7508 H         1 NAD4345     0.0000 
     70 H           7.9641  -34.6915   14.1437 H         1 NAD4345     0.0000 
@<TRIPOS>BOND
     1    2    1 ar   
     2    3    1 ar   
     3    4    1 1    
     4   23    1 1    
     5    5    4 1    
     6    6    5 1    
     7   45    5 1    
     8   46    5 1    
     9    7    6 1    
    10    8    6 1    
    11   47    6 1    
    12   12    7 1    
    13    9    8 1    
    14   10    8 1    
    15   48    8 1    
    16   67    9 1    
    17   11   10 1    
    18   12   10 1    
    19   49   10 1    
    20   68   11 1    
    21   13   12 1    
    22   50   12 1    
    23   14   13 1    
    24   22   13 1    
    25   15   14 2    
    26   51   14 1    
    27   16   15 1    
    28   17   16 ar   
    29   22   16 ar   
    30   18   17 1    
    31   19   17 ar   
    32   52   18 1    
    33   53   18 1    
    34   20   19 ar   
    35   21   20 ar   
    36   54   20 1    
    37   22   21 ar   
    38   24   23 1    
    39   25   24 ar   
    40   26   24 ar   
    41   27   24 1    
    42   28   27 1    
    43   29   28 1    
    44   55   28 1    
    45   56   28 1    
    46   30   29 1    
    47   31   29 1    
    48   57   29 1    
    49   35   30 1    
    50   32   31 1    
    51   33   31 1    
    52   58   31 1    
    53   69   32 1    
    54   34   33 1    
    55   35   33 1    
    56   59   33 1    
    57   70   34 1    
    58   36   35 1    
    59   60   35 1    
    60   37   36 ar   
    61   44   36 ar   
    62   38   37 ar   
    63   61   37 1    
    64   39   38 1    
    65   42   38 ar   
    66   40   39 2    
    67   41   39 am   
    68   62   41 1    
    69   63   41 1    
    70   43   42 ar   
    71   64   42 1    
    72   44   43 ar   
    73   65   43 1    
    74   66   44 1    
@<TRIPOS>SUBSTRUCTURE
     1 NAD4345     1 GROUP   
@<TRIPOS>SET

