#    Name: 1t7k_BH0_1_INTS_M
#    Modification time : Tue Mar 25 04:27:23 2014

@<TRIPOS>MOLECULE
1t7k_BH0_1_INTS_M
   83     0     9     0     0
SMALL
NO_CHARGES


@<TRIPOS>ATOM
      1 CA         17.7890   23.5870    8.0090 C.3       3 GLC5        0.0000 
      2 CA         16.3250   22.0300    7.7880 C.3       9 GLL5        0.0000 
      3 CA         19.2530   25.1440    8.2300 C.3       6 GLP5        0.0000 
      4 O          15.2255   25.4075    3.3955 O.2       1 ALC1        0.0000 
      5 O          14.6520   25.0070    4.4650 O.2       7 ALL1        0.0000 
      6 O          15.7990   25.8080    2.3260 O.2       4 ALP1        0.0000 
      7 O          14.2770   25.0660    2.9680 O.2       1 ALC1        0.0000 
      8 O          13.9020   25.1250    1.4710 O.2       4 ALP1        0.0000 
      9 N          10.1535   19.9930    6.0440 N.am      2 SEC2        0.0000 
     10 N          11.2540   20.9860    6.9740 N.am      8 SEL2        0.0000 
     11 N           9.0530   19.0000    5.1140 N.am      5 SEP2        0.0000 
     12 N          11.3535   20.1890    8.0640 N.am      2 SEC2        0.0000 
     13 N          11.4530   19.3920    9.1540 N.am      5 SEP2        0.0000 
     14 CA          8.6110   22.0390    6.1665 C.3       3 GLC5        0.0000 
     15 CA          9.8580   23.3700    6.9210 C.3       9 GLL5        0.0000 
     16 CA          7.3640   20.7080    5.4120 C.3       6 GLP5        0.0000 
     17 CA         17.3635   20.7895    3.2855 C.3       3 GLC5        0.0000 
     18 CA         16.6330   18.9880    3.8970 C.3       9 GLL5        0.0000 
     19 CA         18.0940   22.5910    2.6740 C.3       6 GLP5        0.0000 
     20 N          18.5885   19.0420    1.0910 N.am      2 SEC2        0.0000 
     21 N          17.2610   18.8190    1.5660 N.am      8 SEL2        0.0000 
     22 N          19.9160   19.2650    0.6160 N.am      5 SEP2        0.0000 
     23 O          17.4445   19.3370    0.2960 O.2       1 ALC1        0.0000 
     24 O          17.2610   18.8190    1.5660 O.2       7 ALL1        0.0000 
     25 O          17.6280   19.8550   -0.9740 O.2       4 ALP1        0.0000 
     26 N           9.1870   30.2615    8.3700 N.am      2 SEC2        0.0000 
     27 N           9.1920   28.7940    8.6930 N.am      8 SEL2        0.0000 
     28 N           9.1820   31.7290    8.0470 N.am      5 SEP2        0.0000 
     29 CA          7.5995   22.4285    4.5520 C.3       3 GLC5        0.0000 
     30 CA          7.8350   24.1490    3.6920 C.3       9 GLL5        0.0000 
     31 CA          7.0545   22.4760    2.9475 C.3       3 GLC5        0.0000 
     32 CA          6.2740   20.8030    2.2030 C.3       6 GLP5        0.0000 
     33 N           9.4055   20.5080    4.4735 N.am      2 SEC2        0.0000 
     34 N           9.7580   22.0160    3.8330 N.am      8 SEL2        0.0000 
     35 CA          6.2620   23.4225    2.3220 C.3       3 GLC5        0.0000 
     36 CA          6.7730   25.0570    3.4450 C.3       9 GLL5        0.0000 
     37 CA          5.7510   21.7880    1.1990 C.3       6 GLP5        0.0000 
     38 CA          7.6295   29.1430    0.3530 C.3       3 GLC5        0.0000 
     39 CA          8.4890   27.5450    1.2060 C.3       9 GLL5        0.0000 
     40 CA          6.7700   30.7410   -0.5000 C.3       6 GLP5        0.0000 
     41 CA         17.4608   21.1905   10.8498 C.3       3 GLC5        0.0000 
     42 CA         16.8590   21.0370    8.6420 C.3       9 GLL5        0.0000 
     43 CA         18.4660   21.6240   12.5460 C.3       6 GLP5        0.0000 
     44 CA         14.9772   20.0607   11.3400 C.3       3 GLC5        0.0000 
     45 CA         16.0520   20.4770    9.6650 C.3       9 GLL5        0.0000 
     46 CA         14.5720   19.4270   12.9320 C.3       6 GLP5        0.0000 
     47 CA         13.6385   19.6095    8.6728 C.3       3 GLC5        0.0000 
     48 CA         14.7130   20.9120    9.8310 C.3       9 GLL5        0.0000 
     49 CA         12.8300   17.8100    7.9420 C.3       6 GLP5        0.0000 
     50 CA         12.6535   20.7105    9.8648 C.3       3 GLC5        0.0000 
     51 CA         10.8600   20.0120   10.3260 C.3       6 GLP5        0.0000 
     52 CA         14.3047   23.9259    9.3701 C.3       3 GLC5        0.0000 
     53 CA         14.1810   21.9060    8.9760 C.3       9 GLL5        0.0000 
     54 CA         14.1710   25.3940   10.5140 C.3       6 GLP5        0.0000 
     55 CA         12.6227   19.2432    4.2210 C.3       3 GLC5        0.0000 
     56 CA         13.4690   20.3570    5.5810 C.3       9 GLL5        0.0000 
     57 CA         11.2820   18.3220    3.3970 C.3       6 GLP5        0.0000 
     58 CA          9.8805   22.6578    8.5383 C.3       3 GLC5        0.0000 
     59 CA          9.9800   21.2300    9.9220 C.3       6 GLP5        0.0000 
     60 CA         12.9625   19.1532    3.0175 C.3       3 GLC5        0.0000 
     61 CA         14.1740   20.1780    3.1310 C.3       9 GLL5        0.0000 
     62 CA         13.3655   20.6167    1.3710 C.3       3 GLC5        0.0000 
     63 CA         15.1120   19.7910    2.1450 C.3       9 GLL5        0.0000 
     64 CA         12.0880   21.2490    0.1040 C.3       6 GLP5        0.0000 
     65 CA         15.2325   18.4808    0.7555 C.3       3 GLC5        0.0000 
     66 CA         14.7390   17.4680   -0.8230 C.3       6 GLP5        0.0000 
     67 CA         16.2877   21.0526    2.0633 C.3       3 GLC5        0.0000 
     68 CA         16.3400   19.1960    2.5230 C.3       9 GLL5        0.0000 
     69 CA         17.0840   22.5150    1.5460 C.3       6 GLP5        0.0000 
     70 CA         13.8296   18.7896    6.4522 C.3       3 GLC5        0.0000 
     71 CA         15.6950   19.3740    4.8800 C.3       9 GLL5        0.0000 
     72 CA         12.4112   25.7607    9.4220 C.3       3 GLC5        0.0000 
     73 CA         10.5680   26.7980    8.5500 C.3       9 GLL5        0.0000 
     74 CA         10.5615   27.4247   10.3045 C.3       3 GLC5        0.0000 
     75 CA         11.1560   27.7060   12.1990 C.3       6 GLP5        0.0000 
     76 CA         11.2024   27.9501    7.5770 C.3       3 GLC5        0.0000 
     77 CA          9.3660   27.4890    8.2700 C.3       9 GLL5        0.0000 
     78 CA         12.3960   29.0920    6.8540 C.3       6 GLP5        0.0000 
     79 CA         10.0775   26.8708    0.6219 C.3       3 GLC5        0.0000 
     80 CA          9.3340   25.4980    2.2830 C.3       9 GLL5        0.0000 
     81 CA         11.5110   26.9940   -0.4400 C.3       6 GLP5        0.0000 
     82 CA          8.6590   25.4588    0.0869 C.3       3 GLC5        0.0000 
     83 CA          8.6740   24.1700   -1.5100 C.3       6 GLP5        0.0000 
@<TRIPOS>BOND
@<TRIPOS>SUBSTRUCTURE
     1 ALC1        4 GROUP        1 X    ALC  0     ROOT ALC X 1
     2 SEC2        9 GROUP        1 X    SEC  0     **** SEC X 2
     3 GLC5        1 GROUP        1 X    GLC  0     **** GLC X 6
     4 ALP1        6 GROUP        1 Y    ALP  0     ROOT ALP Y 8
     5 SEP2       11 GROUP        1 Y    SEP  0     **** SEP Y 9
     6 GLP5        3 GROUP        1 Y    GLP  0     **** GLP Y 13
     7 ALL1        5 GROUP        1 Z    ALL  0     ROOT ALL Z 15
     8 SEL2       10 GROUP        1 Z    SEL  0     **** SEL Z 16
     9 GLL5        2 GROUP        1 Z    GLL  0     **** GLL Z 20
@<TRIPOS>SET

