#    Name: 1t7k_BH0_1_ligand
#    Modification time : Tue Mar 25 04:27:23 2014

@<TRIPOS>MOLECULE
1t7k_BH0_1_ligand
   73    77     1     0     0
SMALL
NO_CHARGES


@<TRIPOS>ATOM
      1 C1         14.0530   22.9460    5.6130 C.3       1 BH01000     0.0000 
      2 C2         14.4100   23.5400    7.0120 C.3       1 BH01000     0.0000 
      3 C3         14.9820   22.4790    7.9410 C.ar      1 BH01000     0.0000 
      4 C4         16.3250   22.0300    7.7880 C.ar      1 BH01000     0.0000 
      5 C5         16.8590   21.0370    8.6420 C.ar      1 BH01000     0.0000 
      6 C6         16.0520   20.4770    9.6650 C.ar      1 BH01000     0.0000 
      7 C7         14.7130   20.9120    9.8310 C.ar      1 BH01000     0.0000 
      8 C8         14.1810   21.9060    8.9760 C.ar      1 BH01000     0.0000 
      9 C9         13.6420   24.0280    4.5430 C.3       1 BH01000     0.0000 
     10 O1         14.6520   25.0070    4.4650 O.3       1 BH01000     0.0000 
     11 C10        12.3060   24.7560    4.8250 C.3       1 BH01000     0.0000 
     12 N1         11.2500   23.7670    4.8770 N.pl3     1 BH01000     0.0000 
     13 S1         10.4250   23.2240    3.4310 S.o2      1 BH01000     0.0000 
     14 O2         11.3910   23.2140    2.3700 O.2       1 BH01000     0.0000 
     15 N2         11.0080   23.0140    6.0520 N.am      1 BH01000     0.0000 
     16 N3         13.0530   21.7860    5.8240 N.am      1 BH01000     0.0000 
     17 C11        11.7460   21.9090    6.3130 C.2       1 BH01000     0.0000 
     18 O3         11.2540   20.9860    6.9740 O.2       1 BH01000     0.0000 
     19 C14        13.4690   20.3570    5.5810 C.3       1 BH01000     0.0000 
     20 C15         9.8580   23.3700    6.9210 C.3       1 BH01000     0.0000 
     21 C12         9.1130   24.3740    3.1110 C.ar      1 BH01000     0.0000 
     22 C17        14.1740   20.1780    3.1310 C.ar      1 BH01000     0.0000 
     23 C18        15.1120   19.7910    2.1450 C.ar      1 BH01000     0.0000 
     24 C19        16.3400   19.1960    2.5230 C.ar      1 BH01000     0.0000 
     25 C20        16.6330   18.9880    3.8970 C.ar      1 BH01000     0.0000 
     26 C21        15.6950   19.3740    4.8800 C.ar      1 BH01000     0.0000 
     27 C22        14.4580   19.9720    4.5090 C.ar      1 BH01000     0.0000 
     28 C23        10.7350   25.4570    8.1100 C.ar      1 BH01000     0.0000 
     29 C24        10.5680   26.7980    8.5500 C.ar      1 BH01000     0.0000 
     30 C25         9.3660   27.4890    8.2700 C.ar      1 BH01000     0.0000 
     31 C26         8.3350   26.8420    7.5510 C.ar      1 BH01000     0.0000 
     32 C27         8.5050   25.5110    7.1180 C.ar      1 BH01000     0.0000 
     33 C28         9.7040   24.8010    7.3880 C.ar      1 BH01000     0.0000 
     34 O4         17.2610   18.8190    1.5660 O.3       1 BH01000     0.0000 
     35 O5          9.1920   28.7940    8.6930 O.3       1 BH01000     0.0000 
     36 C31         9.3340   25.4980    2.2830 C.ar      1 BH01000     0.0000 
     37 C32         7.8350   24.1490    3.6920 C.ar      1 BH01000     0.0000 
     38 O8          9.7580   22.0160    3.8330 O.2       1 BH01000     0.0000 
     39 C33         8.2640   26.4020    2.0400 C.ar      1 BH01000     0.0000 
     40 C34         6.7730   25.0570    3.4450 C.ar      1 BH01000     0.0000 
     41 C13         6.9850   26.1910    2.6160 C.ar      1 BH01000     0.0000 
     42 C16         8.4890   27.5450    1.2060 C.1       1 BH01000     0.0000 
     43 N4          8.6670   28.4940    0.5630 N.1       1 BH01000     0.0000 
     44 H          15.0044   22.4720    5.2456 H         1 BH01000     0.0000 
     45 H          13.5044   23.9620    7.4454 H         1 BH01000     0.0000 
     46 H          15.1374   24.3378    6.8692 H         1 BH01000     0.0000 
     47 H          16.9081   22.4341    7.0487 H         1 BH01000     0.0000 
     48 H          17.8211   20.7235    8.5239 H         1 BH01000     0.0000 
     49 H          16.4353   19.7611   10.2814 H         1 BH01000     0.0000 
     50 H          14.1343   20.5079   10.5668 H         1 BH01000     0.0000 
     51 H          13.2160   22.2209    9.0950 H         1 BH01000     0.0000 
     52 H          13.5418   23.5124    3.5864 H         1 BH01000     0.0000 
     53 H          12.1458   25.4744    4.0264 H         1 BH01000     0.0000 
     54 H          12.4098   25.2841    5.7683 H         1 BH01000     0.0000 
     55 H          12.5179   19.7385    5.4176 H         1 BH01000     0.0000 
     56 H          13.8462   19.9284    6.5749 H         1 BH01000     0.0000 
     57 H           9.8706   22.7056    7.8374 H         1 BH01000     0.0000 
     58 H           8.8982   23.0696    6.4015 H         1 BH01000     0.0000 
     59 H          13.2897   20.6067    2.8555 H         1 BH01000     0.0000 
     60 H          14.9029   19.9413    1.1561 H         1 BH01000     0.0000 
     61 H          17.5166   18.5621    4.1689 H         1 BH01000     0.0000 
     62 H          15.9029   19.2239    5.8716 H         1 BH01000     0.0000 
     63 H          11.6052   24.9614    8.3156 H         1 BH01000     0.0000 
     64 H          11.3156   27.2589    9.0667 H         1 BH01000     0.0000 
     65 H           7.4674   27.3403    7.3460 H         1 BH01000     0.0000 
     66 H           7.7513   25.0440    6.5984 H         1 BH01000     0.0000 
     67 H          10.2433   25.6609    1.8656 H         1 BH01000     0.0000 
     68 H           7.6830   23.3354    4.2855 H         1 BH01000     0.0000 
     69 H           5.8574   24.8963    3.8621 H         1 BH01000     0.0000 
     70 H           6.2287   26.8427    2.4383 H         1 BH01000     0.0000 
     71 H          14.8776   25.0690    3.4928 H         1 BH01000     0.0000 
     72 H          16.8254   19.0292    0.6907 H         1 BH01000     0.0000 
     73 H           8.6701   28.7230    9.5431 H         1 BH01000     0.0000 
@<TRIPOS>BOND
     1    2    1 1    
     2    9    1 1    
     3   16    1 1    
     4   44    1 1    
     5    3    2 1    
     6   45    2 1    
     7   46    2 1    
     8    4    3 ar   
     9    8    3 ar   
    10    5    4 ar   
    11   47    4 1    
    12    6    5 ar   
    13   48    5 1    
    14    7    6 ar   
    15   49    6 1    
    16    8    7 ar   
    17   50    7 1    
    18   51    8 1    
    19   10    9 1    
    20   11    9 1    
    21   52    9 1    
    22   71   10 1    
    23   12   11 1    
    24   53   11 1    
    25   54   11 1    
    26   13   12 1    
    27   15   12 1    
    28   14   13 2    
    29   21   13 1    
    30   38   13 2    
    31   17   15 am   
    32   20   15 1    
    33   17   16 am   
    34   19   16 1    
    35   18   17 2    
    36   27   19 1    
    37   55   19 1    
    38   56   19 1    
    39   33   20 1    
    40   57   20 1    
    41   58   20 1    
    42   36   21 ar   
    43   37   21 ar   
    44   23   22 ar   
    45   27   22 ar   
    46   59   22 1    
    47   24   23 ar   
    48   60   23 1    
    49   25   24 ar   
    50   34   24 1    
    51   26   25 ar   
    52   61   25 1    
    53   27   26 ar   
    54   62   26 1    
    55   29   28 ar   
    56   33   28 ar   
    57   63   28 1    
    58   30   29 ar   
    59   64   29 1    
    60   31   30 ar   
    61   35   30 1    
    62   32   31 ar   
    63   65   31 1    
    64   33   32 ar   
    65   66   32 1    
    66   72   34 1    
    67   73   35 1    
    68   39   36 ar   
    69   67   36 1    
    70   40   37 ar   
    71   68   37 1    
    72   41   39 ar   
    73   42   39 1    
    74   41   40 ar   
    75   69   40 1    
    76   70   41 1    
    77   43   42 3    
@<TRIPOS>SUBSTRUCTURE
     1 BH01000     1 GROUP   
@<TRIPOS>SET

