#    Name: 1ndh_FAD_1_INTS_M
#    Modification time : Mon Mar 24 18:03:00 2014

@<TRIPOS>MOLECULE
1ndh_FAD_1_INTS_M
   78     0    12     0     0
SMALL
NO_CHARGES


@<TRIPOS>ATOM
      1 NZ          4.1340   18.2635   -4.2070 N.4       3 LYC4        0.0000 
      2 NZ          4.5940   17.1780   -5.3670 N.4      11 LYL4        0.0000 
      3 NZ          2.3820   19.0840   -3.2000 N.4       7 LYP4        0.0000 
      4 N           4.1340   18.2635   -4.2070 N.am      2 SEC2        0.0000 
      5 N           4.5940   17.1780   -5.3670 N.am     10 SEL2        0.0000 
      6 N           3.6740   19.3490   -3.0470 N.am      6 SEP2        0.0000 
      7 N           3.2330   18.0025   -4.8840 N.am      2 SEC2        0.0000 
      8 N           1.8720   18.8270   -4.4010 N.am      6 SEP2        0.0000 
      9 N           3.8005   19.5645   -8.0270 N.am      2 SEC2        0.0000 
     10 N           3.7070   18.4170   -7.4750 N.am     10 SEL2        0.0000 
     11 N           3.8940   20.7120   -8.5790 N.am      6 SEP2        0.0000 
     12 O           9.3250   15.9270  -14.6325 O.2       1 ALC1        0.0000 
     13 O          10.3420   16.8430  -13.6590 O.2       9 ALL1        0.0000 
     14 O           8.3080   15.0110  -15.6060 O.2       5 ALP1        0.0000 
     15 CA         11.1635   13.7790  -12.9825 C.3       4 GLC5        0.0000 
     16 CA         11.6530   14.3720  -11.4480 C.3      12 GLL5        0.0000 
     17 CA         10.6740   13.1860  -14.5170 C.3       8 GLP5        0.0000 
     18 N          13.8030   22.6050   -4.2235 N.am      2 SEC2        0.0000 
     19 N          13.1060   22.1830   -2.9130 N.am     10 SEL2        0.0000 
     20 N          14.5000   23.0270   -5.5340 N.am      6 SEP2        0.0000 
     21 O          14.3830   23.8530   -1.2265 O.2       1 ALC1        0.0000 
     22 O          13.6610   22.7930   -0.8550 O.2       9 ALL1        0.0000 
     23 O          15.1050   24.9130   -1.5980 O.2       5 ALP1        0.0000 
     24 N          12.4155   22.5090    3.4140 N.am      2 SEC2        0.0000 
     25 N          12.6560   21.2710    2.2150 N.am     10 SEL2        0.0000 
     26 N          12.1750   23.7470    4.6130 N.am      6 SEP2        0.0000 
     27 CA         12.9525   21.4735    5.0120 C.3       4 GLC5        0.0000 
     28 CA         11.8080   19.9850    3.8620 C.3      12 GLL5        0.0000 
     29 CA         14.0970   22.9620    6.1620 C.3       8 GLP5        0.0000 
     30 CA         13.8715   19.5845    4.4790 C.3       4 GLC5        0.0000 
     31 CA         15.9350   19.1840    5.0960 C.3       8 GLP5        0.0000 
     32 CA          9.8620   20.1310    7.0685 C.3       4 GLC5        0.0000 
     33 CA         11.0000   18.8070    5.7820 C.3      12 GLL5        0.0000 
     34 CA          8.7240   21.4550    8.3550 C.3       8 GLP5        0.0000 
     35 CA          8.6935   18.8485    2.8075 C.3       4 GLC5        0.0000 
     36 CA         10.4180   18.3420    2.0500 C.3      12 GLL5        0.0000 
     37 CA          6.9690   19.3550    3.5650 C.3       8 GLP5        0.0000 
     38 CA         12.6105   18.7260   -1.2500 C.3       4 GLC5        0.0000 
     39 CA         10.6110   18.8980   -0.7370 C.3      12 GLL5        0.0000 
     40 CA         14.6100   18.5540   -1.7630 C.3       8 GLP5        0.0000 
     41 CA          6.8175   21.0570   -1.0975 C.3       4 GLC5        0.0000 
     42 CA          8.7080   20.4200   -1.7690 C.3      12 GLL5        0.0000 
     43 CA          4.9270   21.6940   -0.4260 C.3       8 GLP5        0.0000 
     44 O           8.3505   22.3845   -2.9860 O.2       1 ALC1        0.0000 
     45 O           9.0450   21.5240   -3.5870 O.2       9 ALL1        0.0000 
     46 O           7.6560   23.2450   -2.3850 O.2       5 ALP1        0.0000 
     47 CA          9.7910   18.8120   -5.4200 C.3       4 GLC5        0.0000 
     48 CA          8.2480   19.2440   -3.9250 C.3      12 GLL5        0.0000 
     49 CA         11.3340   18.3800   -6.9150 C.3       8 GLP5        0.0000 
     50 NZ          4.2260   19.8780   -4.2580 N.4       3 LYC4        0.0000 
     51 NZ          4.7780   20.4070   -5.4690 N.4      11 LYL4        0.0000 
     52 N           4.2260   19.8780   -4.2580 N.am      2 SEC2        0.0000 
     53 N           4.7780   20.4070   -5.4690 N.am     10 SEL2        0.0000 
     54 N           3.3250   19.6170   -4.9350 N.am      2 SEC2        0.0000 
     55 N           4.4275   21.6950   -5.9805 N.am      2 SEC2        0.0000 
     56 N           4.0770   22.9830   -6.4920 N.am      6 SEP2        0.0000 
     57 N           6.8710   22.4315   -6.7120 N.am      2 SEC2        0.0000 
     58 N           6.9020   20.9920   -6.6910 N.am     10 SEL2        0.0000 
     59 N           6.8400   23.8710   -6.7330 N.am      6 SEP2        0.0000 
     60 N           7.8275   21.5385   -7.4875 N.am      2 SEC2        0.0000 
     61 N           8.7530   22.0850   -8.2840 N.am      6 SEP2        0.0000 
     62 CA         10.6412   15.6838   -8.0137 C.3       4 GLC5        0.0000 
     63 CA          8.6790   15.2370   -7.2800 C.3      12 GLL5        0.0000 
     64 CA         12.2260   16.6700   -8.3910 C.3       8 GLP5        0.0000 
     65 CA          9.7978   17.0553  -10.9571 C.3       4 GLC5        0.0000 
     66 CA          9.2970   15.6650  -11.7980 C.3      12 GLL5        0.0000 
     67 CA          9.8740   18.8450  -10.3830 C.3       8 GLP5        0.0000 
     68 CA         10.1977   14.2257  -13.0241 C.3       4 GLC5        0.0000 
     69 CA         11.0005   21.8825    3.2905 C.3       4 GLC5        0.0000 
     70 CA         11.8800   20.1950    2.5100 C.3      12 GLL5        0.0000 
     71 CA         10.1570   23.6750    3.3950 C.3       8 GLP5        0.0000 
     72 CA         13.5925   21.0515    3.2760 C.3       4 GLC5        0.0000 
     73 CA         15.3410   22.0130    3.3660 C.3       8 GLP5        0.0000 
     74 CA          8.5266   18.5872    3.7692 C.3       4 GLC5        0.0000 
     75 CA          9.4770   17.0810    4.0720 C.3      12 GLL5        0.0000 
     76 CA          9.3454   21.7421   -1.6687 C.3       4 GLC5        0.0000 
     77 CA          9.1050   20.2200   -3.1430 C.3      12 GLL5        0.0000 
     78 CA          9.6930   23.4600   -1.1030 C.3       8 GLP5        0.0000 
@<TRIPOS>BOND
@<TRIPOS>SUBSTRUCTURE
     1 ALC1       12 GROUP        1 X    ALC  0     ROOT ALC X 1
     2 SEC2        4 GROUP        1 X    SEC  0     **** SEC X 2
     3 LYC4        1 GROUP        1 X    LYC  0     **** LYC X 4
     4 GLC5       15 GROUP        1 X    GLC  0     **** GLC X 6
     5 ALP1       14 GROUP        1 Y    ALP  0     ROOT ALP Y 8
     6 SEP2        6 GROUP        1 Y    SEP  0     **** SEP Y 9
     7 LYP4        3 GROUP        1 Y    LYP  0     **** LYP Y 11
     8 GLP5       17 GROUP        1 Y    GLP  0     **** GLP Y 13
     9 ALL1       13 GROUP        1 Z    ALL  0     ROOT ALL Z 15
    10 SEL2        5 GROUP        1 Z    SEL  0     **** SEL Z 16
    11 LYL4        2 GROUP        1 Z    LYL  0     **** LYL Z 18
    12 GLL5       16 GROUP        1 Z    GLL  0     **** GLL Z 20
@<TRIPOS>SET

