#    Name: 1ndh_FAD_1_ligand
#    Modification time : Mon Mar 24 18:03:00 2014

@<TRIPOS>MOLECULE
1ndh_FAD_1_ligand
   83    88     1     0     0
SMALL
NO_CHARGES


@<TRIPOS>ATOM
      1 PA          4.7230   17.6870   -6.6950 P.3       1 FAD273      0.0000 
      2 O1A         4.5940   17.1780   -5.3670 O.co2     1 FAD273      0.0000 
      3 O2A         3.7070   18.4170   -7.4750 O.co2     1 FAD273      0.0000 
      4 O5B         5.4840   16.5620   -7.5400 O.3       1 FAD273      0.0000 
      5 C5B         6.1620   15.4740   -6.8800 C.3       1 FAD273      0.0000 
      6 C4B         7.2920   15.1710   -7.8070 C.3       1 FAD273      0.0000 
      7 O4B         7.1770   13.7930   -8.3000 O.3       1 FAD273      0.0000 
      8 C3B         8.6790   15.2370   -7.2800 C.3       1 FAD273      0.0000 
      9 O3B         8.7250   15.0690   -5.9070 O.3       1 FAD273      0.0000 
     10 C2B         9.4340   14.1580   -7.9930 C.3       1 FAD273      0.0000 
     11 O2B         9.5220   13.0030   -7.1460 O.3       1 FAD273      0.0000 
     12 C1B         8.4400   13.6770   -9.0060 C.3       1 FAD273      0.0000 
     13 N9A         8.4730   14.5920  -10.0760 N.pl3     1 FAD273      0.0000 
     14 C8A         7.5280   15.4530  -10.6160 C.2       1 FAD273      0.0000 
     15 N7A         8.0170   16.1260  -11.6770 N.2       1 FAD273      0.0000 
     16 C5A         9.2970   15.6650  -11.7980 C.ar      1 FAD273      0.0000 
     17 C6A        10.3670   15.9750  -12.6970 C.ar      1 FAD273      0.0000 
     18 N6A        10.3420   16.8430  -13.6590 N.pl3     1 FAD273      0.0000 
     19 N1A        11.5100   15.2850  -12.4630 N.ar      1 FAD273      0.0000 
     20 C2A        11.6530   14.3720  -11.4480 C.ar      1 FAD273      0.0000 
     21 N3A        10.7310   14.0470  -10.5980 N.ar      1 FAD273      0.0000 
     22 C4A         9.6110   14.7110  -10.8150 C.ar      1 FAD273      0.0000 
     23 N1         12.1970   20.9150   -1.3570 N.2       1 FAD273      0.0000 
     24 C2         12.9530   21.9440   -1.7600 C.2       1 FAD273      0.0000 
     25 O2         13.1060   22.1830   -2.9130 O.2       1 FAD273      0.0000 
     26 N3         13.6610   22.7930   -0.8550 N.am      1 FAD273      0.0000 
     27 C4         13.5720   22.6380    0.4770 C.2       1 FAD273      0.0000 
     28 O4         14.0980   23.3680    1.2560 O.2       1 FAD273      0.0000 
     29 C4X        12.7390   21.4670    0.9250 C.2       1 FAD273      0.0000 
     30 N5         12.6560   21.2710    2.2150 N.2       1 FAD273      0.0000 
     31 C5X        11.8800   20.1950    2.5100 C.ar      1 FAD273      0.0000 
     32 C6         11.8080   19.9850    3.8620 C.ar      1 FAD273      0.0000 
     33 C7         11.0540   18.9710    4.3230 C.ar      1 FAD273      0.0000 
     34 C7M        11.0000   18.8070    5.7820 C.3       1 FAD273      0.0000 
     35 C8         10.3290   18.1450    3.4270 C.ar      1 FAD273      0.0000 
     36 C8M         9.4770   17.0810    4.0720 C.3       1 FAD273      0.0000 
     37 C9         10.4180   18.3420    2.0500 C.ar      1 FAD273      0.0000 
     38 C9A        11.1760   19.3730    1.5810 C.ar      1 FAD273      0.0000 
     39 N10        11.2980   19.6440    0.3100 N.pl3     1 FAD273      0.0000 
     40 C10        12.0780   20.6650   -0.0950 C.2       1 FAD273      0.0000 
     41 C1'        10.6110   18.8980   -0.7370 C.3       1 FAD273      0.0000 
     42 C2'         9.0730   19.2370   -0.8830 C.3       1 FAD273      0.0000 
     43 O2'         8.3500   18.1780   -1.7650 O.3       1 FAD273      0.0000 
     44 C3'         8.7080   20.4200   -1.7690 C.3       1 FAD273      0.0000 
     45 O3'         7.3480   21.1490   -1.5060 O.3       1 FAD273      0.0000 
     46 C4'         9.1050   20.2200   -3.1430 C.3       1 FAD273      0.0000 
     47 O4'         9.0450   21.5240   -3.5870 O.3       1 FAD273      0.0000 
     48 C5'         8.2480   19.2440   -3.9250 C.3       1 FAD273      0.0000 
     49 O5'         7.0420   19.6890   -4.5630 O.3       1 FAD273      0.0000 
     50 P           6.1290   20.0830   -5.8200 P.3       1 FAD273      0.0000 
     51 O1P         4.7780   20.4070   -5.4690 O.co2     1 FAD273      0.0000 
     52 O2P         6.9020   20.9920   -6.6910 O.co2     1 FAD273      0.0000 
     53 O3P         6.0600   18.7110   -6.6340 O.3       1 FAD273      0.0000 
     54 H           5.5312   14.6124   -6.7936 H         1 FAD273      0.0000 
     55 H           6.5524   15.7736   -5.9283 H         1 FAD273      0.0000 
     56 H           7.2302   15.8241   -8.6905 H         1 FAD273      0.0000 
     57 H           9.1063   16.1891   -7.5982 H         1 FAD273      0.0000 
     58 H          10.2774   14.4580   -8.4174 H         1 FAD273      0.0000 
     59 H           8.6524   12.6978   -9.2637 H         1 FAD273      0.0000 
     60 H           6.6220   15.5451  -10.2548 H         1 FAD273      0.0000 
     61 H          12.6270   13.9020  -11.3778 H         1 FAD273      0.0000 
     62 H          14.2528   23.5419   -1.2748 H         1 FAD273      0.0000 
     63 H          12.3278   20.6008    4.5063 H         1 FAD273      0.0000 
     64 H           9.9170   17.7150    1.4134 H         1 FAD273      0.0000 
     65 H          10.6766   17.8059   -0.5631 H         1 FAD273      0.0000 
     66 H          11.0684   19.0815   -1.7291 H         1 FAD273      0.0000 
     67 H           8.5743   19.2910    0.0180 H         1 FAD273      0.0000 
     68 H           9.5040   21.2566   -1.3804 H         1 FAD273      0.0000 
     69 H          10.1419   19.8764   -3.1457 H         1 FAD273      0.0000 
     70 H           8.0169   18.3722   -3.2228 H         1 FAD273      0.0000 
     71 H           8.9326   18.7461   -4.6930 H         1 FAD273      0.0000 
     72 H          11.9063   18.6414    6.1709 H         1 FAD273      0.0000 
     73 H          10.6312   19.6194    6.2337 H         1 FAD273      0.0000 
     74 H          10.4216   18.0358    6.0479 H         1 FAD273      0.0000 
     75 H          10.0236   16.4523    4.6252 H         1 FAD273      0.0000 
     76 H           8.7838   17.4754    4.6752 H         1 FAD273      0.0000 
     77 H           8.9941   16.5291    3.3921 H         1 FAD273      0.0000 
     78 H           8.9751   14.1103   -5.7720 H         1 FAD273      0.0000 
     79 H          10.4669   12.6880   -7.2354 H         1 FAD273      0.0000 
     80 H           9.7461   16.4414  -14.3544 H         1 FAD273      0.0000 
     81 H           7.8513   17.6002   -1.1189 H         1 FAD273      0.0000 
     82 H           6.6464   20.4573   -1.6771 H         1 FAD273      0.0000 
     83 H           8.4245   21.9850   -2.9526 H         1 FAD273      0.0000 
@<TRIPOS>BOND
     1    2    1 ar   
     2    3    1 ar   
     3    4    1 1    
     4   53    1 1    
     5    5    4 1    
     6    6    5 1    
     7   54    5 1    
     8   55    5 1    
     9    7    6 1    
    10    8    6 1    
    11   56    6 1    
    12   12    7 1    
    13    9    8 1    
    14   10    8 1    
    15   57    8 1    
    16   78    9 1    
    17   11   10 1    
    18   12   10 1    
    19   58   10 1    
    20   79   11 1    
    21   13   12 1    
    22   59   12 1    
    23   14   13 1    
    24   22   13 1    
    25   15   14 2    
    26   60   14 1    
    27   16   15 1    
    28   17   16 ar   
    29   22   16 ar   
    30   18   17 1    
    31   19   17 ar   
    32   80   18 1    
    33   20   19 ar   
    34   21   20 ar   
    35   61   20 1    
    36   22   21 ar   
    37   24   23 1    
    38   40   23 2    
    39   25   24 2    
    40   26   24 am   
    41   27   26 am   
    42   62   26 1    
    43   28   27 2    
    44   29   27 1    
    45   30   29 2    
    46   40   29 1    
    47   31   30 1    
    48   32   31 ar   
    49   38   31 ar   
    50   33   32 ar   
    51   63   32 1    
    52   34   33 1    
    53   35   33 ar   
    54   72   34 1    
    55   73   34 1    
    56   74   34 1    
    57   36   35 1    
    58   37   35 ar   
    59   75   36 1    
    60   76   36 1    
    61   77   36 1    
    62   38   37 ar   
    63   64   37 1    
    64   39   38 1    
    65   40   39 1    
    66   41   39 1    
    67   42   41 1    
    68   65   41 1    
    69   66   41 1    
    70   43   42 1    
    71   44   42 1    
    72   67   42 1    
    73   81   43 1    
    74   45   44 1    
    75   46   44 1    
    76   68   44 1    
    77   82   45 1    
    78   47   46 1    
    79   48   46 1    
    80   69   46 1    
    81   83   47 1    
    82   49   48 1    
    83   70   48 1    
    84   71   48 1    
    85   50   49 1    
    86   51   50 ar   
    87   52   50 ar   
    88   53   50 1    
@<TRIPOS>SUBSTRUCTURE
     1 FAD273      1 GROUP   
@<TRIPOS>SET

