#    Name: 4k3n_1OT_7_INTS_M
#    Modification time : Tue Mar 25 06:53:12 2014

@<TRIPOS>MOLECULE
4k3n_1OT_7_INTS_M
   35     0    12     0     0
SMALL
NO_CHARGES


@<TRIPOS>ATOM
      1 Zn         89.2450   76.8035  144.0615 Zn        3 ZIC7        0.0000 
      2 Zn         90.0800   76.0260  144.3600 Zn       11 ZIL7        0.0000 
      3 Zn         88.4100   77.5810  143.7630 Zn        7 ZIP7        0.0000 
      4 Zn         90.2100   75.7975  143.1765 Zn        3 ZIC7        0.0000 
      5 Zn         90.3400   75.5690  141.9930 Zn        7 ZIP7        0.0000 
      6 NZ         88.7620   73.2730  142.3665 N.4       2 LYC4        0.0000 
      7 NZ         89.2680   73.8870  143.2490 N.4      10 LYL4        0.0000 
      8 NZ         88.2560   72.6590  141.4840 N.4       6 LYP4        0.0000 
      9 Zn         89.8040   74.7280  142.6210 Zn        3 ZIC7        0.0000 
     10 Zn         89.2680   73.8870  143.2490 Zn       11 ZIL7        0.0000 
     11 N          88.7620   73.2730  142.3665 N.am      1 SEC2        0.0000 
     12 N          89.2680   73.8870  143.2490 N.am      9 SEL2        0.0000 
     13 N          88.2560   72.6590  141.4840 N.am      5 SEP2        0.0000 
     14 Zn         87.7585   76.7160  144.1165 Zn        3 ZIC7        0.0000 
     15 Zn         87.1070   75.8510  144.4700 Zn       11 ZIL7        0.0000 
     16 CA         85.2715   75.8740  147.6060 C.3       4 GLC5        0.0000 
     17 CA         86.0490   74.0210  146.6580 C.3      12 GLL5        0.0000 
     18 CA         84.4940   77.7270  148.5540 C.3       8 GLP5        0.0000 
     19 CA         81.8585   71.5290  146.1870 C.3       4 GLC5        0.0000 
     20 CA         83.5520   70.8250  147.4800 C.3      12 GLL5        0.0000 
     21 CA         80.1650   72.2330  144.8940 C.3       8 GLP5        0.0000 
     22 CA         85.6255   70.5590  148.1535 C.3       4 GLC5        0.0000 
     23 CA         87.6990   70.2930  148.8270 C.3       8 GLP5        0.0000 
     24 CA         85.7142   73.8030  148.6875 C.3       4 GLC5        0.0000 
     25 CA         85.7930   74.1200  150.5790 C.3       8 GLP5        0.0000 
     26 CA         86.7470   71.1414  147.3875 C.3       4 GLC5        0.0000 
     27 CA         86.3190   71.6380  145.2960 C.3      12 GLL5        0.0000 
     28 CA         81.9670   69.5012  146.2205 C.3       4 GLC5        0.0000 
     29 CA         80.6780   68.7990  144.9780 C.3       8 GLP5        0.0000 
     30 CA         82.9345   68.8588  148.6720 C.3       4 GLC5        0.0000 
     31 CA         82.9600   69.5820  147.4460 C.3      12 GLL5        0.0000 
     32 CA         82.6130   67.5140  149.8810 C.3       8 GLP5        0.0000 
     33 CA         84.9676   72.5602  144.3773 C.3       4 GLC5        0.0000 
     34 CA         85.2220   72.9510  146.9340 C.3      12 GLL5        0.0000 
     35 CA         83.9460   72.7160  142.7940 C.3       8 GLP5        0.0000 
@<TRIPOS>BOND
@<TRIPOS>SUBSTRUCTURE
     1 SEC2       11 GROUP        1 X    SEC  0     ROOT SEC X 2
     2 LYC4        6 GROUP        1 X    LYC  0     **** LYC X 4
     3 ZIC7        1 GROUP        1 X    ZIC  0     **** ZIC X 5
     4 GLC5       16 GROUP        1 X    GLC  0     **** GLC X 6
     5 SEP2       13 GROUP        1 Y    SEP  0     ROOT SEP Y 9
     6 LYP4        8 GROUP        1 Y    LYP  0     **** LYP Y 11
     7 ZIP7        3 GROUP        1 Y    ZIP  0     **** ZIP Y 12
     8 GLP5       18 GROUP        1 Y    GLP  0     **** GLP Y 13
     9 SEL2       12 GROUP        1 Z    SEL  0     ROOT SEL Z 16
    10 LYL4        7 GROUP        1 Z    LYL  0     **** LYL Z 18
    11 ZIL7        2 GROUP        1 Z    ZIL  0     **** ZIL Z 19
    12 GLL5       17 GROUP        1 Z    GLL  0     **** GLL Z 20
@<TRIPOS>SET

