#    Name: 4k3n_1OT_7_ligand
#    Modification time : Tue Mar 25 06:53:12 2014

@<TRIPOS>MOLECULE
4k3n_1OT_7_ligand
   27    28     1     0     0
SMALL
NO_CHARGES


@<TRIPOS>ATOM
      1 O1         90.0800   76.0260  144.3600 O.co2     1 1OT1004     0.0000 
      2 P          89.4610   74.6980  144.6290 P.3       1 1OT1004     0.0000 
      3 O2         89.2680   73.8870  143.2490 O.co2     1 1OT1004     0.0000 
      4 O3         90.4040   73.8480  145.6260 O.co2     1 1OT1004     0.0000 
      5 C1         87.8720   75.0670  145.4170 C.3       1 1OT1004     0.0000 
      6 N1         87.1070   75.8510  144.4700 N.3       1 1OT1004     0.0000 
      7 C2         87.0300   73.8910  145.6950 C.ar      1 1OT1004     0.0000 
      8 C10        86.0490   74.0210  146.6580 C.ar      1 1OT1004     0.0000 
      9 C9         85.2220   72.9510  146.9340 C.ar      1 1OT1004     0.0000 
     10 C5         85.3200   71.7320  146.2660 C.ar      1 1OT1004     0.0000 
     11 C4         86.3190   71.6380  145.2960 C.ar      1 1OT1004     0.0000 
     12 C3         87.1620   72.7030  144.9970 C.ar      1 1OT1004     0.0000 
     13 N2         84.5000   70.7230  146.5550 N.pl3     1 1OT1004     0.0000 
     14 N3         84.5800   69.4930  145.9120 N.2       1 1OT1004     0.0000 
     15 C8         83.5930   68.7820  146.5000 C.2       1 1OT1004     0.0000 
     16 C7         82.9600   69.5820  147.4460 C.2       1 1OT1004     0.0000 
     17 C6         83.5520   70.8250  147.4800 C.2       1 1OT1004     0.0000 
     18 H          88.1372   75.6170  146.2658 H         1 1OT1004     0.0000 
     19 H          85.9357   74.9079  147.1653 H         1 1OT1004     0.0000 
     20 H          84.4882   73.0540  147.6758 H         1 1OT1004     0.0000 
     21 H          86.4355   70.7398  144.7801 H         1 1OT1004     0.0000 
     22 H          87.8738   72.6060  144.2657 H         1 1OT1004     0.0000 
     23 H          83.3497   67.8713  146.3118 H         1 1OT1004     0.0000 
     24 H          82.2193   69.3013  147.9915 H         1 1OT1004     0.0000 
     25 H          83.3213   71.5390  148.0277 H         1 1OT1004     0.0000 
     26 H          86.4297   75.2947  143.9887 H         1 1OT1004     0.0000 
     27 H          86.6105   76.5942  144.9185 H         1 1OT1004     0.0000 
@<TRIPOS>BOND
     1    2    1 ar   
     2    3    2 ar   
     3    4    2 ar   
     4    5    2 1    
     5    6    5 1    
     6    7    5 1    
     7   18    5 1    
     8   26    6 1    
     9   27    6 1    
    10    8    7 ar   
    11   12    7 ar   
    12    9    8 ar   
    13   19    8 1    
    14   10    9 ar   
    15   20    9 1    
    16   11   10 ar   
    17   13   10 1    
    18   12   11 ar   
    19   21   11 1    
    20   22   12 1    
    21   14   13 1    
    22   17   13 1    
    23   15   14 2    
    24   16   15 1    
    25   23   15 1    
    26   17   16 2    
    27   24   16 1    
    28   25   17 1    
@<TRIPOS>SUBSTRUCTURE
     1 1OT1004     1 GROUP   
@<TRIPOS>SET

