#    Name: 3igo_ANP_1_INTS_M
#    Modification time : Tue Mar 25 16:30:52 2014

@<TRIPOS>MOLECULE
3igo_ANP_1_INTS_M
   59     0    12     0     0
SMALL
NO_CHARGES


@<TRIPOS>ATOM
      1 N          20.3090   15.1870   -1.8855 N.am      2 SEC2        0.0000 
      2 N          19.4980   14.7420   -1.0810 N.am     10 SEL2        0.0000 
      3 N          21.1200   15.6320   -2.6900 N.am      6 SEP2        0.0000 
      4 N          19.2030   15.9525   -1.5050 N.am      2 SEC2        0.0000 
      5 N          18.9080   17.1630   -1.9290 N.am      6 SEP2        0.0000 
      6 N          18.2205   13.1575    1.8120 N.am      2 SEC2        0.0000 
      7 N          17.9610   13.6690    0.5960 N.am     10 SEL2        0.0000 
      8 N          18.4800   12.6460    3.0280 N.am      6 SEP2        0.0000 
      9 NZ         23.0750   15.3135    3.7325 N.4       3 LYC4        0.0000 
     10 NZ         22.2970   15.6860    2.6140 N.4      11 LYL4        0.0000 
     11 NZ         23.8530   14.9410    4.8510 N.4       7 LYP4        0.0000 
     12 N          23.0750   15.3135    3.7325 N.am      2 SEC2        0.0000 
     13 N          22.2970   15.6860    2.6140 N.am     10 SEL2        0.0000 
     14 N          23.8530   14.9410    4.8510 N.am      6 SEP2        0.0000 
     15 N          22.1820   16.6955   -0.6295 N.am      2 SEC2        0.0000 
     16 N          22.3670   15.4850    0.0630 N.am     10 SEL2        0.0000 
     17 N          21.9970   17.9060   -1.3220 N.am      6 SEP2        0.0000 
     18 N          23.5735   16.6085   -0.4110 N.am      2 SEC2        0.0000 
     19 N          24.7800   17.7320   -0.8850 N.am      6 SEP2        0.0000 
     20 NZ         23.2115   13.7785    4.4045 N.4       3 LYC4        0.0000 
     21 NZ         22.5700   12.6160    3.9580 N.4      11 LYL4        0.0000 
     22 N          23.2115   13.7785    4.4045 N.am      2 SEC2        0.0000 
     23 N          22.5700   12.6160    3.9580 N.am     10 SEL2        0.0000 
     24 CA         23.0935   12.2510   -0.7105 C.3       4 GLC5        0.0000 
     25 CA         23.8180   10.8660    0.7510 C.3      12 GLL5        0.0000 
     26 CA         22.3690   13.6360   -2.1720 C.3       8 GLP5        0.0000 
     27 CA         25.5630    9.0470   -0.6160 C.3       4 GLC5        0.0000 
     28 CA         24.2550    9.4140    0.6750 C.3      12 GLL5        0.0000 
     29 CA         26.8710    8.6800   -1.9070 C.3       8 GLP5        0.0000 
     30 CA         26.1550    8.3355    0.1130 C.3       4 GLC5        0.0000 
     31 CA         25.4390    7.9910    2.1330 C.3      12 GLL5        0.0000 
     32 CA         26.7640    9.5850    2.0025 C.3       4 GLC5        0.0000 
     33 CA         28.0890   11.1790    1.8720 C.3       8 GLP5        0.0000 
     34 O          27.9850    8.0695    9.0070 O.2       1 ALC1        0.0000 
     35 O          26.9770    8.2380    8.0880 O.2       9 ALL1        0.0000 
     36 O          28.9930    7.9010    9.9260 O.2       5 ALP1        0.0000 
     37 N          28.0735    5.4675    7.6530 N.am      2 SEC2        0.0000 
     38 N          27.5740    6.4610    6.6500 N.am     10 SEL2        0.0000 
     39 N          28.5730    4.4740    8.6560 N.am      6 SEP2        0.0000 
     40 CA         29.3070    6.2235    4.1960 C.3       4 GLC5        0.0000 
     41 CA         27.5870    5.8590    5.4400 C.3      12 GLL5        0.0000 
     42 CA         31.0270    6.5880    2.9520 C.3       8 GLP5        0.0000 
     43 CA         28.9865    7.4830    5.9845 C.3       4 GLC5        0.0000 
     44 CA         30.3860    9.1070    6.5290 C.3       8 GLP5        0.0000 
     45 CA         29.4235    5.5685    5.7270 C.3       4 GLC5        0.0000 
     46 CA         31.2600    5.2780    6.0140 C.3       8 GLP5        0.0000 
     47 CA         27.6480    4.5755    7.1575 C.3       4 GLC5        0.0000 
     48 CA         27.7090    3.2920    8.8750 C.3       8 GLP5        0.0000 
     49 CA         25.6725    5.7145    5.9060 C.3       4 GLC5        0.0000 
     50 CA         23.7580    5.5700    6.3720 C.3       8 GLP5        0.0000 
     51 CA         25.4898   11.1095    1.4785 C.3       4 GLC5        0.0000 
     52 CA         26.9430   12.0790    2.2440 C.3       8 GLP5        0.0000 
     53 CA         27.5117    9.2695    4.1108 C.3       4 GLC5        0.0000 
     54 CA         26.3290    7.5720    4.4330 C.3      12 GLL5        0.0000 
     55 CA         28.7160   10.6060    3.1460 C.3       8 GLP5        0.0000 
     56 CA         28.5038    8.5395    6.4117 C.3       4 GLC5        0.0000 
     57 CA         26.2860    8.2940    5.7180 C.3      12 GLL5        0.0000 
     58 CA         25.1166    6.6710    5.8679 C.3       4 GLC5        0.0000 
     59 CA         26.9570    7.6500    6.8710 C.3      12 GLL5        0.0000 
@<TRIPOS>BOND
@<TRIPOS>SUBSTRUCTURE
     1 ALC1       34 GROUP        1 X    ALC  0     ROOT ALC X 1
     2 SEC2        1 GROUP        1 X    SEC  0     **** SEC X 2
     3 LYC4        9 GROUP        1 X    LYC  0     **** LYC X 4
     4 GLC5       24 GROUP        1 X    GLC  0     **** GLC X 6
     5 ALP1       36 GROUP        1 Y    ALP  0     ROOT ALP Y 8
     6 SEP2        3 GROUP        1 Y    SEP  0     **** SEP Y 9
     7 LYP4       11 GROUP        1 Y    LYP  0     **** LYP Y 11
     8 GLP5       26 GROUP        1 Y    GLP  0     **** GLP Y 13
     9 ALL1       35 GROUP        1 Z    ALL  0     ROOT ALL Z 15
    10 SEL2        2 GROUP        1 Z    SEL  0     **** SEL Z 16
    11 LYL4       10 GROUP        1 Z    LYL  0     **** LYL Z 18
    12 GLL5       25 GROUP        1 Z    GLL  0     **** GLL Z 20
@<TRIPOS>SET

