#    Name: 3igo_ANP_1_ligand
#    Modification time : Tue Mar 25 16:30:52 2014

@<TRIPOS>MOLECULE
3igo_ANP_1_ligand
   43    45     1     0     0
SMALL
NO_CHARGES


@<TRIPOS>ATOM
      1 PG         19.3870   13.8130    0.1180 P.3       1 ANP610      0.0000 
      2 O1G        19.4980   14.7420   -1.0810 O.co2     1 ANP610      0.0000 
      3 O2G        17.9610   13.6690    0.5960 O.co2     1 ANP610      0.0000 
      4 O3G        20.0960   12.4950   -0.0910 O.co2     1 ANP610      0.0000 
      5 PB         21.9630   14.8730    1.3760 P.3       1 ANP610      0.0000 
      6 O1B        22.2970   15.6860    2.6140 O.co2     1 ANP610      0.0000 
      7 O2B        22.3670   15.4850    0.0630 O.co2     1 ANP610      0.0000 
      8 N3B        20.2370   14.6240    1.4090 N.4       1 ANP610      0.0000 
      9 PA         22.4020   12.2470    2.4970 P.3       1 ANP610      0.0000 
     10 O1A        21.0540   11.7280    2.0730 O.co2     1 ANP610      0.0000 
     11 O2A        22.5700   12.6160    3.9580 O.co2     1 ANP610      0.0000 
     12 O3A        22.7790   13.4710    1.4820 O.3       1 ANP610      0.0000 
     13 O5'        23.5460   11.1950    2.1180 O.3       1 ANP610      0.0000 
     14 C5'        23.8180   10.8660    0.7510 C.3       1 ANP610      0.0000 
     15 C4'        24.2550    9.4140    0.6750 C.3       1 ANP610      0.0000 
     16 O4'        25.4930    9.1850    1.3410 O.3       1 ANP610      0.0000 
     17 C3'        23.2410    8.4800    1.3270 C.3       1 ANP610      0.0000 
     18 O3'        22.4600    7.9450    0.2710 O.3       1 ANP610      0.0000 
     19 C2'        24.0570    7.3730    1.9610 C.3       1 ANP610      0.0000 
     20 O2'        24.1400    6.2780    1.0400 O.3       1 ANP610      0.0000 
     21 C1'        25.4390    7.9910    2.1330 C.3       1 ANP610      0.0000 
     22 N9         25.6520    8.3210    3.5650 N.pl3     1 ANP610      0.0000 
     23 C8         25.2090    9.4190    4.2050 C.2       1 ANP610      0.0000 
     24 N7         25.5890    9.4150    5.5040 N.2       1 ANP610      0.0000 
     25 C5         26.2860    8.2940    5.7180 C.ar      1 ANP610      0.0000 
     26 C6         26.9570    7.6500    6.8710 C.ar      1 ANP610      0.0000 
     27 N6         26.9770    8.2380    8.0880 N.pl3     1 ANP610      0.0000 
     28 N1         27.5740    6.4610    6.6500 N.ar      1 ANP610      0.0000 
     29 C2         27.5870    5.8590    5.4400 C.ar      1 ANP610      0.0000 
     30 N3         26.9760    6.3850    4.3620 N.ar      1 ANP610      0.0000 
     31 C4         26.3290    7.5720    4.4330 C.ar      1 ANP610      0.0000 
     32 H          24.6192   11.4845    0.3395 H         1 ANP610      0.0000 
     33 H          22.9320   10.9880    0.1233 H         1 ANP610      0.0000 
     34 H          24.3299    9.1237   -0.3708 H         1 ANP610      0.0000 
     35 H          22.7018    8.9970    2.0424 H         1 ANP610      0.0000 
     36 H          23.6628    7.1279    2.8882 H         1 ANP610      0.0000 
     37 H          26.1669    7.2765    1.8105 H         1 ANP610      0.0000 
     38 H          24.6781   10.1335    3.7870 H         1 ANP610      0.0000 
     39 H          27.7503    8.0038    8.6772 H         1 ANP610      0.0000 
     40 H          26.2167    8.8551    8.2912 H         1 ANP610      0.0000 
     41 H          28.0990    4.9366    5.3382 H         1 ANP610      0.0000 
     42 H          21.7526    7.4011    0.7224 H         1 ANP610      0.0000 
     43 H          23.5036    6.5099    0.3043 H         1 ANP610      0.0000 
@<TRIPOS>BOND
     1    2    1 ar   
     2    3    1 ar   
     3    4    1 ar   
     4    8    1 1    
     5    6    5 ar   
     6    7    5 ar   
     7    8    5 1    
     8   12    5 1    
     9   10    9 ar   
    10   11    9 ar   
    11   12    9 1    
    12   13    9 1    
    13   14   13 1    
    14   15   14 1    
    15   32   14 1    
    16   33   14 1    
    17   16   15 1    
    18   17   15 1    
    19   34   15 1    
    20   21   16 1    
    21   18   17 1    
    22   19   17 1    
    23   35   17 1    
    24   42   18 1    
    25   20   19 1    
    26   21   19 1    
    27   36   19 1    
    28   43   20 1    
    29   22   21 1    
    30   37   21 1    
    31   23   22 1    
    32   31   22 1    
    33   24   23 2    
    34   38   23 1    
    35   25   24 1    
    36   26   25 ar   
    37   31   25 ar   
    38   27   26 1    
    39   28   26 ar   
    40   39   27 1    
    41   40   27 1    
    42   29   28 ar   
    43   30   29 ar   
    44   41   29 1    
    45   31   30 ar   
@<TRIPOS>SUBSTRUCTURE
     1 ANP610      1 GROUP   
@<TRIPOS>SET

