#    Name: 1pyd_TDP_2_INTS_M
#    Modification time : Mon Mar 24 22:27:19 2014

@<TRIPOS>MOLECULE
1pyd_TDP_2_INTS_M
   77     0    12     0     0
SMALL
NO_CHARGES


@<TRIPOS>ATOM
      1 CA        -12.3015   -5.5920   25.0740 C.3       4 GLC5        0.0000 
      2 CA        -11.9080   -5.2450   26.9120 C.3      12 GLL5        0.0000 
      3 CA        -12.6950   -5.9390   23.2360 C.3       8 GLP5        0.0000 
      4 CA        -11.6685   -4.2380   24.8935 C.3       4 GLC5        0.0000 
      5 CA        -11.1170   -3.9700   26.8750 C.3      12 GLL5        0.0000 
      6 CA        -12.2200   -4.5060   22.9120 C.3       8 GLP5        0.0000 
      7 CA        -10.8900   -3.4185   28.7685 C.3       4 GLC5        0.0000 
      8 CA        -10.6630   -2.8670   30.6620 C.3       8 GLP5        0.0000 
      9 N         -14.0990   -4.0650   26.9700 N.am      2 SEC2        0.0000 
     10 N         -13.1180   -5.2410   26.4580 N.am     10 SEL2        0.0000 
     11 N         -15.0800   -2.8890   27.4820 N.am      6 SEP2        0.0000 
     12 CA        -14.4185   -4.2970   25.8385 C.3       4 GLC5        0.0000 
     13 CA        -13.9080   -6.3570   26.5210 C.3      12 GLL5        0.0000 
     14 CA        -14.9290   -2.2370   25.1560 C.3       8 GLP5        0.0000 
     15 O         -15.7745   -5.3985   25.2655 O.2       1 ALC1        0.0000 
     16 O         -15.1240   -6.2800   25.9840 O.2       9 ALL1        0.0000 
     17 O         -16.4250   -4.5170   24.5470 O.2       5 ALP1        0.0000 
     18 CA        -11.5045   -8.4565   25.6615 C.3       4 GLC5        0.0000 
     19 CA        -12.1310   -7.4800   27.5590 C.3      12 GLL5        0.0000 
     20 CA        -10.8780   -9.4330   23.7640 C.3       8 GLP5        0.0000 
     21 CA        -18.5895   -7.0095   28.0575 C.3       4 GLC5        0.0000 
     22 CA        -17.5510   -8.5070   29.2850 C.3      12 GLL5        0.0000 
     23 CA        -19.6280   -5.5120   26.8300 C.3       8 GLP5        0.0000 
     24 CA        -13.2160   -9.6815   32.2610 C.3       4 GLC5        0.0000 
     25 CA        -13.8240   -9.0340   30.6070 C.3      12 GLL5        0.0000 
     26 CA        -12.6080  -10.3290   33.9150 C.3       8 GLP5        0.0000 
     27 CA        -15.3365   -7.1555   31.5285 C.3       4 GLC5        0.0000 
     28 CA        -16.7000   -8.7860   31.8750 C.3      12 GLL5        0.0000 
     29 CA        -13.9730   -5.5250   31.1820 C.3       8 GLP5        0.0000 
     30 CA        -15.8550   -9.6200   33.2040 C.3       4 GLC5        0.0000 
     31 CA        -15.0100  -10.4540   34.5330 C.3       8 GLP5        0.0000 
     32 CA        -17.1560   -6.2350   30.8315 C.3       4 GLC5        0.0000 
     33 CA        -17.5470   -7.5750   32.2510 C.3      12 GLL5        0.0000 
     34 CA        -16.7650   -4.8950   29.4120 C.3       8 GLP5        0.0000 
     35 CA        -16.2300   -8.3840   33.6685 C.3       4 GLC5        0.0000 
     36 CA        -14.9130   -9.1930   35.0860 C.3       8 GLP5        0.0000 
     37 Zn        -18.9310   -7.6435   36.8275 Zn        3 ZIC7        0.0000 
     38 Zn        -18.2540   -7.1770   35.9340 Zn       11 ZIL7        0.0000 
     39 Zn        -19.6080   -8.1100   37.7210 Zn        7 ZIP7        0.0000 
     40 N         -17.3330   -6.2365   36.6485 N.am      2 SEC2        0.0000 
     41 N         -18.2540   -7.1770   35.9340 N.am     10 SEL2        0.0000 
     42 N         -16.4120   -5.2960   37.3630 N.am      6 SEP2        0.0000 
     43 N         -16.9215   -4.6100   34.5205 N.am      2 SEC2        0.0000 
     44 N         -18.3750   -5.2950   34.1130 N.am     10 SEL2        0.0000 
     45 N         -15.4680   -3.9250   34.9280 N.am      6 SEP2        0.0000 
     46 N         -17.7095   -4.4640   33.3520 N.am      2 SEC2        0.0000 
     47 N         -17.0440   -3.6330   32.5910 N.am      6 SEP2        0.0000 
     48 N         -23.1390   -7.1480   33.5590 N.am      2 SEC2        0.0000 
     49 N         -22.2540   -7.0440   34.9000 N.am     10 SEL2        0.0000 
     50 N         -24.0240   -7.2520   32.2180 N.am      6 SEP2        0.0000 
     51 N         -23.7350   -7.0755   34.8785 N.am      2 SEC2        0.0000 
     52 N         -25.2160   -7.1070   34.8570 N.am      6 SEP2        0.0000 
     53 N         -22.7695   -8.1295   32.8870 N.am      2 SEC2        0.0000 
     54 N         -21.5150   -9.0070   33.5560 N.am     10 SEL2        0.0000 
     55 N         -21.4035  -10.4215   33.3040 N.am      2 SEC2        0.0000 
     56 N         -21.2920  -11.8360   33.0520 N.am      6 SEP2        0.0000 
     57 Zn        -20.1435   -8.4230   36.8185 Zn        3 ZIC7        0.0000 
     58 Zn        -20.6790   -8.7360   35.9160 Zn       11 ZIL7        0.0000 
     59 N         -21.8110   -8.9545   37.0130 N.am      2 SEC2        0.0000 
     60 N         -20.6790   -8.7360   35.9160 N.am     10 SEL2        0.0000 
     61 N         -22.9430   -9.1730   38.1100 N.am      6 SEP2        0.0000 
     62 N         -20.2345  -10.1995   35.7220 N.am      2 SEC2        0.0000 
     63 N         -19.7900  -11.6630   35.5280 N.am      6 SEP2        0.0000 
     64 CA        -12.8513   -4.6442   28.3967 C.3       4 GLC5        0.0000 
     65 CA        -14.1900   -4.6810   29.9000 C.3       8 GLP5        0.0000 
     66 CA        -13.1725   -6.4402   25.0290 C.3       4 GLC5        0.0000 
     67 CA        -13.5403   -5.9459   28.5452 C.3       4 GLC5        0.0000 
     68 CA        -12.9596   -9.9447   26.7782 C.3       4 GLC5        0.0000 
     69 CA        -13.3920   -7.5260   27.1230 C.3      12 GLL5        0.0000 
     70 CA        -12.4370  -11.7510   26.2460 C.3       8 GLP5        0.0000 
     71 CA        -18.5110   -9.3658   30.4453 C.3       4 GLC5        0.0000 
     72 CA        -20.0860  -10.1010   31.0310 C.3       8 GLP5        0.0000 
     73 CA        -16.7063   -6.7684   29.4815 C.3       4 GLC5        0.0000 
     74 CA        -16.3210   -8.7540   30.4340 C.3      12 GLL5        0.0000 
     75 CA        -14.2085   -7.2280   30.6955 C.3       4 GLC5        0.0000 
     76 CA        -15.0640   -8.8280   29.8110 C.3      12 GLL5        0.0000 
     77 CA        -18.6047   -9.1408   31.5470 C.3       4 GLC5        0.0000 
@<TRIPOS>BOND
@<TRIPOS>SUBSTRUCTURE
     1 ALC1       15 GROUP        1 X    ALC  0     ROOT ALC X 1
     2 SEC2        9 GROUP        1 X    SEC  0     **** SEC X 2
     3 ZIC7       37 GROUP        1 X    ZIC  0     **** ZIC X 5
     4 GLC5        1 GROUP        1 X    GLC  0     **** GLC X 6
     5 ALP1       17 GROUP        1 Y    ALP  0     ROOT ALP Y 8
     6 SEP2       11 GROUP        1 Y    SEP  0     **** SEP Y 9
     7 ZIP7       39 GROUP        1 Y    ZIP  0     **** ZIP Y 12
     8 GLP5        3 GROUP        1 Y    GLP  0     **** GLP Y 13
     9 ALL1       16 GROUP        1 Z    ALL  0     ROOT ALL Z 15
    10 SEL2       10 GROUP        1 Z    SEL  0     **** SEL Z 16
    11 ZIL7       38 GROUP        1 Z    ZIL  0     **** ZIL Z 19
    12 GLL5        2 GROUP        1 Z    GLL  0     **** GLL Z 20
@<TRIPOS>SET

