#    Name: 1pyd_TDP_2_ligand
#    Modification time : Mon Mar 24 22:27:19 2014

@<TRIPOS>MOLECULE
1pyd_TDP_2_ligand
   42    43     1     0     0
SMALL
NO_CHARGES


@<TRIPOS>ATOM
      1 N1'       -11.3680   -6.3390   27.4660 N.ar      1 TDP557      0.0000 
      2 C2'       -11.9080   -5.2450   26.9120 C.ar      1 TDP557      0.0000 
      3 C2A       -11.1170   -3.9700   26.8750 C.3       1 TDP557      0.0000 
      4 N3'       -13.1180   -5.2410   26.4580 N.ar      1 TDP557      0.0000 
      5 C4'       -13.9080   -6.3570   26.5210 C.ar      1 TDP557      0.0000 
      6 N4'       -15.1240   -6.2800   25.9840 N.pl3     1 TDP557      0.0000 
      7 C5'       -13.3920   -7.5260   27.1230 C.ar      1 TDP557      0.0000 
      8 C6'       -12.1310   -7.4800   27.5590 C.ar      1 TDP557      0.0000 
      9 C35       -14.2030   -8.7740   27.2800 C.3       1 TDP557      0.0000 
     10 N3        -15.1490   -8.7480   28.4390 N.pl3     1 TDP557      0.0000 
     11 C2        -16.3970   -8.5520   28.0510 C.2       1 TDP557      0.0000 
     12 S1        -17.5510   -8.5070   29.2850 S.3       1 TDP557      0.0000 
     13 C5        -16.3210   -8.7540   30.4340 C.2       1 TDP557      0.0000 
     14 C4        -15.0640   -8.8280   29.8110 C.2       1 TDP557      0.0000 
     15 C4A       -13.8240   -9.0340   30.6070 C.3       1 TDP557      0.0000 
     16 C5A       -16.7000   -8.7860   31.8750 C.3       1 TDP557      0.0000 
     17 C5B       -17.5470   -7.5750   32.2510 C.3       1 TDP557      0.0000 
     18 O5G       -17.5310   -7.5660   33.6910 O.3       1 TDP557      0.0000 
     19 P1        -18.5470   -6.7250   34.5450 P.3       1 TDP557      0.0000 
     20 O11       -20.0030   -7.1530   34.0390 O.3       1 TDP557      0.0000 
     21 O12       -18.2540   -7.1770   35.9340 O.co2     1 TDP557      0.0000 
     22 O13       -18.3750   -5.2950   34.1130 O.co2     1 TDP557      0.0000 
     23 P2        -21.1680   -8.1250   34.6730 P.3       1 TDP557      0.0000 
     24 O21       -22.2540   -7.0440   34.9000 O.co2     1 TDP557      0.0000 
     25 O22       -21.5150   -9.0070   33.5560 O.co2     1 TDP557      0.0000 
     26 O23       -20.6790   -8.7360   35.9160 O.co2     1 TDP557      0.0000 
     27 H         -15.3504   -5.4187   25.5292 H         1 TDP557      0.0000 
     28 H         -15.7012   -7.0904   26.0839 H         1 TDP557      0.0000 
     29 H         -11.6905   -8.3349   27.9905 H         1 TDP557      0.0000 
     30 H         -13.5183   -9.6409   27.3890 H         1 TDP557      0.0000 
     31 H         -14.7763   -8.9545   26.3468 H         1 TDP557      0.0000 
     32 H         -16.8002   -8.4245   27.1757 H         1 TDP557      0.0000 
     33 H         -15.8007   -8.7928   32.5000 H         1 TDP557      0.0000 
     34 H         -17.2708   -9.6948   32.0933 H         1 TDP557      0.0000 
     35 H         -18.5364   -7.7176   31.8614 H         1 TDP557      0.0000 
     36 H         -17.0877   -6.6974   31.8390 H         1 TDP557      0.0000 
     37 H         -10.8740   -3.6570   27.7931 H         1 TDP557      0.0000 
     38 H         -10.2628   -4.0775   26.3663 H         1 TDP557      0.0000 
     39 H         -11.6271   -3.2291   26.4381 H         1 TDP557      0.0000 
     40 H         -13.3727   -9.8957   30.3751 H         1 TDP557      0.0000 
     41 H         -13.1583   -8.3038   30.4532 H         1 TDP557      0.0000 
     42 H         -14.0124   -9.0568   31.5888 H         1 TDP557      0.0000 
@<TRIPOS>BOND
     1    2    1 ar   
     2    8    1 ar   
     3    3    2 1    
     4    4    2 ar   
     5   37    3 1    
     6   38    3 1    
     7   39    3 1    
     8    5    4 ar   
     9    6    5 1    
    10    7    5 ar   
    11   27    6 1    
    12   28    6 1    
    13    8    7 ar   
    14    9    7 1    
    15   29    8 1    
    16   10    9 1    
    17   30    9 1    
    18   31    9 1    
    19   11   10 2    
    20   14   10 1    
    21   12   11 1    
    22   32   11 1    
    23   13   12 1    
    24   14   13 2    
    25   16   13 1    
    26   15   14 1    
    27   40   15 1    
    28   41   15 1    
    29   42   15 1    
    30   17   16 1    
    31   33   16 1    
    32   34   16 1    
    33   18   17 1    
    34   35   17 1    
    35   36   17 1    
    36   19   18 1    
    37   20   19 1    
    38   21   19 ar   
    39   22   19 ar   
    40   23   20 1    
    41   24   23 ar   
    42   25   23 ar   
    43   26   23 ar   
@<TRIPOS>SUBSTRUCTURE
     1 TDP557      1 GROUP   
@<TRIPOS>SET

