#    Name: 2x92_X92_1_INTS_M
#    Modification time : Tue Mar 25 05:30:51 2014

@<TRIPOS>MOLECULE
2x92_X92_1_INTS_M
   63     0    12     0     0
SMALL
NO_CHARGES


@<TRIPOS>ATOM
      1 Zn         27.3105   -1.8510  -20.8070 Zn        3 ZIC7        0.0000 
      2 Zn         27.9010   -1.4370  -21.6960 Zn       11 ZIL7        0.0000 
      3 Zn         26.7200   -2.2650  -19.9180 Zn        7 ZIP7        0.0000 
      4 N          29.1865   -1.1015  -21.6955 N.am      1 SEC2        0.0000 
      5 N          27.9010   -1.4370  -21.6960 N.am      9 SEL2        0.0000 
      6 N          30.4720   -0.7660  -21.6950 N.am      5 SEP2        0.0000 
      7 Zn         26.2530   -2.0580  -21.0295 Zn        3 ZIC7        0.0000 
      8 Zn         25.7860   -1.8510  -22.1410 Zn       11 ZIL7        0.0000 
      9 N          24.9410   -2.5365  -23.0290 N.am      1 SEC2        0.0000 
     10 N          25.7860   -1.8510  -22.1410 N.am      9 SEL2        0.0000 
     11 N          24.0960   -3.2220  -23.9170 N.am      5 SEP2        0.0000 
     12 CA         25.2680   -3.8345  -26.5000 C.3       4 GLC5        0.0000 
     13 CA         26.9880   -4.2500  -25.4700 C.3      12 GLL5        0.0000 
     14 CA         23.5480   -3.4190  -27.5300 C.3       8 GLP5        0.0000 
     15 CA         25.5265   -5.7350  -25.6420 C.3       4 GLC5        0.0000 
     16 CA         24.0650   -7.2200  -25.8140 C.3       8 GLP5        0.0000 
     17 N          29.4770   -2.3115  -26.2360 N.am      1 SEC2        0.0000 
     18 N          29.9100   -3.0010  -25.1510 N.am      9 SEL2        0.0000 
     19 N          29.0440   -1.6220  -27.3210 N.am      5 SEP2        0.0000 
     20 CA         29.9385   -4.0820  -21.5230 C.3       4 GLC5        0.0000 
     21 CA         28.9920   -5.4450  -22.6550 C.3      12 GLL5        0.0000 
     22 CA         30.8850   -2.7190  -20.3910 C.3       8 GLP5        0.0000 
     23 CA         26.8510   -6.9770  -21.3520 C.3       4 GLC5        0.0000 
     24 CA         28.4470   -7.8200  -22.3670 C.3      12 GLL5        0.0000 
     25 CA         25.2550   -6.1340  -20.3370 C.3       8 GLP5        0.0000 
     26 CA         31.0180   -8.1540  -20.0500 C.3       4 GLC5        0.0000 
     27 CA         29.6310   -7.4740  -21.4420 C.3      12 GLL5        0.0000 
     28 CA         32.4050   -8.8340  -18.6580 C.3       8 GLP5        0.0000 
     29 CA         33.1855   -6.4495  -22.0150 C.3       4 GLC5        0.0000 
     30 CA         31.3150   -6.1420  -22.7650 C.3      12 GLL5        0.0000 
     31 CA         35.0560   -6.7570  -21.2650 C.3       8 GLP5        0.0000 
     32 CA         31.0310   -3.7895  -21.9930 C.3       4 GLC5        0.0000 
     33 CA         31.1770   -4.8600  -23.5950 C.3      12 GLL5        0.0000 
     34 NZ         33.5495   -4.3000  -26.5410 N.4       2 LYC4        0.0000 
     35 NZ         32.9040   -4.5220  -25.2260 N.4      10 LYL4        0.0000 
     36 NZ         34.1950   -4.0780  -27.8560 N.4       6 LYP4        0.0000 
     37 N          33.3415   -5.9955  -25.6405 N.am      1 SEC2        0.0000 
     38 N          32.9040   -4.5220  -25.2260 N.am      9 SEL2        0.0000 
     39 N          33.7790   -7.4690  -26.0550 N.am      5 SEP2        0.0000 
     40 N          33.5495   -4.3000  -26.5410 N.am      1 SEC2        0.0000 
     41 N          34.1950   -4.0780  -27.8560 N.am      5 SEP2        0.0000 
     42 N          33.9300   -4.5020  -24.5080 N.am      1 SEC2        0.0000 
     43 N          34.9560   -4.4820  -23.7900 N.am      5 SEP2        0.0000 
     44 NZ         32.6485   -4.8515  -26.8640 N.4       2 LYC4        0.0000 
     45 NZ         31.1020   -5.6250  -25.8720 N.4      10 LYL4        0.0000 
     46 N          32.4405   -6.5470  -25.9635 N.am      1 SEC2        0.0000 
     47 N          31.1020   -5.6250  -25.8720 N.am      9 SEL2        0.0000 
     48 CA         25.1785    2.8300  -25.4180 C.3       4 GLC5        0.0000 
     49 CA         26.8910    3.1430  -24.9030 C.3      12 GLL5        0.0000 
     50 CA         23.4690    1.8690  -25.6770 C.3       8 GLP5        0.0000 
     51 CA         29.7305    4.7508  -23.9030 C.3       4 GLC5        0.0000 
     52 CA         27.4890    5.4710  -24.6910 C.3      12 GLL5        0.0000 
     53 CA         31.5120    4.8770  -24.2940 C.3       8 GLP5        0.0000 
     54 CA         27.8005   -0.5507  -25.9292 C.3       4 GLC5        0.0000 
     55 CA         27.9560    0.3400  -24.0140 C.3      12 GLL5        0.0000 
     56 CA         28.0950   -0.8170  -27.9010 C.3       8 GLP5        0.0000 
     57 CA         27.7102   -2.3043  -26.4300 C.3       4 GLC5        0.0000 
     58 CA         27.6630   -3.3330  -24.4480 C.3      12 GLL5        0.0000 
     59 CA         27.0023   -5.4503  -21.8837 C.3       4 GLC5        0.0000 
     60 CA         25.3630   -4.8570  -20.7730 C.3       8 GLP5        0.0000 
     61 CA         31.2492   -4.8215  -21.0020 C.3       4 GLC5        0.0000 
     62 CA         30.1160   -6.0620  -21.8110 C.3      12 GLL5        0.0000 
     63 CA         31.7830   -3.5410  -19.7160 C.3       8 GLP5        0.0000 
@<TRIPOS>BOND
@<TRIPOS>SUBSTRUCTURE
     1 SEC2        4 GROUP        1 X    SEC  0     ROOT SEC X 2
     2 LYC4       34 GROUP        1 X    LYC  0     **** LYC X 4
     3 ZIC7        1 GROUP        1 X    ZIC  0     **** ZIC X 5
     4 GLC5       12 GROUP        1 X    GLC  0     **** GLC X 6
     5 SEP2        6 GROUP        1 Y    SEP  0     ROOT SEP Y 9
     6 LYP4       36 GROUP        1 Y    LYP  0     **** LYP Y 11
     7 ZIP7        3 GROUP        1 Y    ZIP  0     **** ZIP Y 12
     8 GLP5       14 GROUP        1 Y    GLP  0     **** GLP Y 13
     9 SEL2        5 GROUP        1 Z    SEL  0     ROOT SEL Z 16
    10 LYL4       35 GROUP        1 Z    LYL  0     **** LYL Z 18
    11 ZIL7        2 GROUP        1 Z    ZIL  0     **** ZIL Z 19
    12 GLL5       13 GROUP        1 Z    GLL  0     **** GLL Z 20
@<TRIPOS>SET

