#    Name: 2x92_X92_1_ligand
#    Modification time : Tue Mar 25 05:30:51 2014

@<TRIPOS>MOLECULE
2x92_X92_1_ligand
   53    55     1     0     0
SMALL
NO_CHARGES


@<TRIPOS>ATOM
      1 CAK        26.8910    3.1430  -24.9030 C.ar      1 X921623     0.0000 
      2 CAI        26.8850    4.4390  -25.4150 C.ar      1 X921623     0.0000 
      3 CAG        27.4890    5.4710  -24.6910 C.ar      1 X921623     0.0000 
      4 CAH        28.0970    5.2090  -23.4570 C.ar      1 X921623     0.0000 
      5 CAJ        28.1050    3.9090  -22.9500 C.ar      1 X921623     0.0000 
      6 CAV        27.5050    2.8720  -23.6750 C.ar      1 X921623     0.0000 
      7 CAM        27.5070    1.4580  -23.0730 C.3       1 X921623     0.0000 
      8 CAP        27.9560    0.3400  -24.0140 C.3       1 X921623     0.0000 
      9 CAX        27.0560   -0.9090  -23.9010 C.3       1 X921623     0.0000 
     10 CAS        26.9160   -1.4510  -22.4580 C.2       1 X921623     0.0000 
     11 OAE        27.9010   -1.4370  -21.6960 O.co2     1 X921623     0.0000 
     12 OAB        25.7860   -1.8510  -22.1410 O.co2     1 X921623     0.0000 
     13 N          27.5070   -1.9330  -24.8790 N.4       1 X921623     0.0000 
     14 CA         27.6630   -3.3330  -24.4480 C.3       1 X921623     0.0000 
     15 CB         26.9880   -4.2500  -25.4700 C.3       1 X921623     0.0000 
     16 C          29.1660   -3.6430  -24.4120 C.2       1 X921623     0.0000 
     17 O          29.9100   -3.0010  -25.1510 O.2       1 X921623     0.0000 
     18 NBB        29.7110   -4.6020  -23.6420 N.am      1 X921623     0.0000 
     19 CBA        28.9920   -5.4450  -22.6550 C.3       1 X921623     0.0000 
     20 CAO        28.2910   -6.6420  -23.3340 C.3       1 X921623     0.0000 
     21 CAL        28.4470   -7.8200  -22.3670 C.3       1 X921623     0.0000 
     22 CAN        29.6310   -7.4740  -21.4420 C.3       1 X921623     0.0000 
     23 CAY        30.1160   -6.0620  -21.8110 C.3       1 X921623     0.0000 
     24 CAQ        31.3150   -6.1420  -22.7650 C.3       1 X921623     0.0000 
     25 CAZ        31.1770   -4.8600  -23.5950 C.3       1 X921623     0.0000 
     26 CAT        31.7840   -5.0320  -25.0130 C.2       1 X921623     0.0000 
     27 OAF        32.9040   -4.5220  -25.2260 O.co2     1 X921623     0.0000 
     28 OAC        31.1020   -5.6250  -25.8720 O.co2     1 X921623     0.0000 
     29 H          26.4430    2.3805  -25.4278 H         1 X921623     0.0000 
     30 H          26.4411    4.6363  -26.3164 H         1 X921623     0.0000 
     31 H          27.4875    6.4285  -25.0657 H         1 X921623     0.0000 
     32 H          28.5340    5.9709  -22.9298 H         1 X921623     0.0000 
     33 H          28.5494    3.7108  -22.0472 H         1 X921623     0.0000 
     34 H          26.4857    1.2295  -22.7072 H         1 X921623     0.0000 
     35 H          28.1614    1.4571  -22.1781 H         1 X921623     0.0000 
     36 H          28.9831    0.0559  -23.7749 H         1 X921623     0.0000 
     37 H          27.9286    0.7010  -25.0444 H         1 X921623     0.0000 
     38 H          26.0333   -0.5749  -24.2186 H         1 X921623     0.0000 
     39 H          27.2497   -3.4914  -23.4932 H         1 X921623     0.0000 
     40 H          28.3535   -4.9202  -22.0548 H         1 X921623     0.0000 
     41 H          28.7811   -6.8622  -24.2544 H         1 X921623     0.0000 
     42 H          27.2577   -6.4171  -23.4664 H         1 X921623     0.0000 
     43 H          28.6736   -8.7095  -22.9148 H         1 X921623     0.0000 
     44 H          27.5592   -7.9265  -21.7812 H         1 X921623     0.0000 
     45 H          30.4245   -8.1786  -21.6013 H         1 X921623     0.0000 
     46 H          29.2997   -7.4839  -20.4214 H         1 X921623     0.0000 
     47 H          30.3103   -5.4906  -20.9937 H         1 X921623     0.0000 
     48 H          31.2175   -6.9859  -23.3912 H         1 X921623     0.0000 
     49 H          32.2136   -6.1154  -22.2123 H         1 X921623     0.0000 
     50 H          31.6701   -4.0701  -23.0808 H         1 X921623     0.0000 
     51 H          27.3921   -4.1534  -26.3796 H         1 X921623     0.0000 
     52 H          27.0682   -5.2135  -25.2145 H         1 X921623     0.0000 
     53 H          26.0122   -4.0509  -25.5602 H         1 X921623     0.0000 
@<TRIPOS>BOND
     1    2    1 ar   
     2    6    1 ar   
     3   29    1 1    
     4    3    2 ar   
     5   30    2 1    
     6    4    3 ar   
     7   31    3 1    
     8    5    4 ar   
     9   32    4 1    
    10    6    5 ar   
    11   33    5 1    
    12    7    6 1    
    13    8    7 1    
    14   34    7 1    
    15   35    7 1    
    16    9    8 1    
    17   36    8 1    
    18   37    8 1    
    19   10    9 1    
    20   13    9 1    
    21   38    9 1    
    22   11   10 ar   
    23   12   10 ar   
    24   14   13 1    
    25   15   14 1    
    26   16   14 1    
    27   39   14 1    
    28   51   15 1    
    29   52   15 1    
    30   53   15 1    
    31   17   16 2    
    32   18   16 am   
    33   19   18 1    
    34   25   18 1    
    35   20   19 1    
    36   23   19 1    
    37   40   19 1    
    38   21   20 1    
    39   41   20 1    
    40   42   20 1    
    41   22   21 1    
    42   43   21 1    
    43   44   21 1    
    44   23   22 1    
    45   45   22 1    
    46   46   22 1    
    47   24   23 1    
    48   47   23 1    
    49   25   24 1    
    50   48   24 1    
    51   49   24 1    
    52   26   25 1    
    53   50   25 1    
    54   27   26 ar   
    55   28   26 ar   
@<TRIPOS>SUBSTRUCTURE
     1 X921623     1 GROUP   
@<TRIPOS>SET

