#    Name: 2IKH_1_CAVITY_N1_ALL.mol2
#    Modification time : Mon Mar 10 19:40:33 2014

@<TRIPOS>MOLECULE
2IKH_1_CAVITY_N1_ALL.mol2
   87     0     4     0     0
SMALL
NO_CHARGES


@<TRIPOS>ATOM
      1 CA         18.4522  -11.6025   12.2172 C.3       3 GLY6        0.0000 
      2 CZ         19.6435  -10.8593   13.8073 C.ar      2 PHE5        0.0000 
      3 DU         18.0638  -12.2166   14.2102 H         4 CUB7        0.0000 
      4 CA         18.1737  -10.8946   13.5100 C.3       3 GLY6        0.0000 
      5 N          18.7235   -4.2846   10.0091 N.2       1 ALA2        0.0000 
      6 CZ         16.5940  -12.2518   13.9129 C.ar      2 PHE5        0.0000 
      7 CA         17.1437   -5.6418   10.4119 C.3       3 GLY6        0.0000 
      8 CA         17.2536   -4.3199    9.7117 C.3       3 GLY6        0.0000 
      9 CA         17.3636   -2.9979    9.0116 C.3       3 GLY6        0.0000 
     10 CA         15.6739   -5.6771   10.1146 C.3       3 GLY6        0.0000 
     11 CA         15.7838   -4.3551    9.4144 C.3       3 GLY6        0.0000 
     12 CZ         19.2551  -11.4734   15.8003 C.ar      2 PHE5        0.0000 
     13 CZ         19.3651  -10.1514   15.1001 C.ar      2 PHE5        0.0000 
     14 DU         17.6753  -12.8307   16.2032 H         4 CUB7        0.0000 
     15 DU         17.7853  -11.5087   15.5030 H         4 CUB7        0.0000 
     16 CA         17.8952  -10.1867   14.8028 C.3       3 GLY6        0.0000 
     17 CA         18.2251   -6.2207   12.7022 C.3       3 GLY6        0.0000 
     18 O          18.3350   -4.8987   12.0021 O.2       1 ALA2        0.0000 
     19 O          18.4450   -3.5767   11.3019 O.2       1 ALA2        0.0000 
     20 DU         16.2055  -12.8659   15.9058 H         4 CUB7        0.0000 
     21 CZ         16.3155  -11.5439   15.2057 C.ar      2 PHE5        0.0000 
     22 CZ         16.4254  -10.2219   14.5055 C.ar      2 PHE5        0.0000 
     23 CZ         16.5354   -8.8999   13.8053 C.ar      2 PHE5        0.0000 
     24 CA         16.7553   -6.2559   12.4049 C.3       3 GLY6        0.0000 
     25 CZ         16.8652   -4.9340   11.7047 C.ar      2 PHE5        0.0000 
     26 CZ         16.9752   -3.6120   11.0045 C.ar      2 PHE5        0.0000 
     27 DU         14.7357  -12.9011   15.6085 H         4 CUB7        0.0000 
     28 CZ         14.8457  -11.5791   14.9083 C.ar      2 PHE5        0.0000 
     29 CZ         15.2854   -6.2912   12.1076 C.ar      2 PHE5        0.0000 
     30 CZ         15.3954   -4.9692   11.4074 C.ar      2 PHE5        0.0000 
     31 CZ         15.5053   -3.6472   10.7072 C.ar      2 PHE5        0.0000 
     32 O          13.1560  -14.2583   16.0114 O.2       1 ALA2        0.0000 
     33 CA         13.2659  -12.9364   15.3112 C.3       3 GLY6        0.0000 
     34 CZ         18.8667  -12.0875   17.7933 C.ar      2 PHE5        0.0000 
     35 CZ         18.9766  -10.7655   17.0931 C.ar      2 PHE5        0.0000 
     36 CZ         19.0866   -9.4436   16.3929 C.ar      2 PHE5        0.0000 
     37 CZ         19.1965   -8.1216   15.6927 C.ar      2 PHE5        0.0000 
     38 CA         19.3065   -6.7996   14.9925 C.3       3 GLY6        0.0000 
     39 O          17.3969  -12.1228   17.4960 O.2       1 ALA2        0.0000 
     40 O          17.5068  -10.8008   16.7958 O.2       1 ALA2        0.0000 
     41 CZ         17.6168   -9.4788   16.0956 C.ar      2 PHE5        0.0000 
     42 CA         17.7267   -8.1568   15.3954 C.3       3 GLY6        0.0000 
     43 CA         17.8366   -6.8348   14.6952 C.3       3 GLY6        0.0000 
     44 CZ         17.9466   -5.5128   13.9950 C.ar      2 PHE5        0.0000 
     45 DU         15.8171  -13.4800   17.8988 H         4 CUB7        0.0000 
     46 O          15.9270  -12.1580   17.1986 O.2       1 ALA2        0.0000 
     47 DU         16.0370  -10.8360   16.4985 H         4 CUB7        0.0000 
     48 DU         16.1469   -9.5140   15.7983 H         4 CUB7        0.0000 
     49 CZ         16.2569   -8.1920   15.0981 C.ar      2 PHE5        0.0000 
     50 O          16.3668   -6.8700   14.3979 O.2       1 ALA2        0.0000 
     51 CZ         16.4768   -5.5481   13.6977 C.ar      2 PHE5        0.0000 
     52 O          14.2373  -14.8372   18.3017 O.2       1 ALA2        0.0000 
     53 N          14.3473  -13.5152   17.6015 N.2       1 ALA2        0.0000 
     54 N          14.4572  -12.1932   16.9013 N.2       1 ALA2        0.0000 
     55 CA         14.5672  -10.8712   16.2011 C.3       3 GLY6        0.0000 
     56 CZ         14.6771   -9.5493   15.5010 C.ar      2 PHE5        0.0000 
     57 CZ         18.9180   -7.4137   16.9855 C.ar      2 PHE5        0.0000 
     58 CA         19.0280   -6.0917   16.2854 C.3       3 GLY6        0.0000 
     59 O          17.0084  -12.7369   19.4890 O.2       1 ALA2        0.0000 
     60 CZ         17.3383   -8.7709   17.3884 C.ar      2 PHE5        0.0000 
     61 CZ         17.4482   -7.4489   16.6882 C.ar      2 PHE5        0.0000 
     62 CZ         17.5582   -6.1269   15.9880 C.ar      2 PHE5        0.0000 
     63 DU         15.4287  -14.0941   19.8918 H         4 CUB7        0.0000 
     64 O          15.5386  -12.7721   19.1916 O.2       1 ALA2        0.0000 
     65 O          15.6486  -11.4501   18.4915 O.2       1 ALA2        0.0000 
     66 O          15.7585  -10.1281   17.7913 O.2       1 ALA2        0.0000 
     67 O          15.8685   -8.8061   17.0911 O.2       1 ALA2        0.0000 
     68 DU         15.9784   -7.4841   16.3909 H         4 CUB7        0.0000 
     69 O          16.0883   -6.1622   15.6907 O.2       1 ALA2        0.0000 
     70 N          13.9589  -14.1293   19.5945 N.2       1 ALA2        0.0000 
     71 N          14.0688  -12.8073   18.8943 N.2       1 ALA2        0.0000 
     72 N          14.1787  -11.4853   18.1941 N.2       1 ALA2        0.0000 
     73 CA         14.2887  -10.1634   17.4939 C.3       3 GLY6        0.0000 
     74 CA         14.3986   -8.8414   16.7938 C.3       3 GLY6        0.0000 
     75 CZ         14.5086   -7.5194   16.0936 C.ar      2 PHE5        0.0000 
     76 CZ         17.1697   -6.7410   17.9810 C.ar      2 PHE5        0.0000 
     77 CZ         17.2797   -5.4190   17.2808 C.ar      2 PHE5        0.0000 
     78 N          15.1502  -13.3862   21.1846 N.2       1 ALA2        0.0000 
     79 CA         15.2601  -12.0642   20.4844 C.3       3 GLY6        0.0000 
     80 CZ         15.5900   -8.0982   18.3839 C.ar      2 PHE5        0.0000 
     81 N          15.6999   -6.7763   17.6837 N.2       1 ALA2        0.0000 
     82 O          15.8099   -5.4543   16.9835 O.2       1 ALA2        0.0000 
     83 CA         13.7903  -12.0994   20.1871 C.3       3 GLY6        0.0000 
     84 CZ         13.9003  -10.7775   19.4869 C.ar      2 PHE5        0.0000 
     85 CZ         14.0102   -9.4555   18.7868 C.ar      2 PHE5        0.0000 
     86 CA         14.1202   -8.1335   18.0866 C.3       3 GLY6        0.0000 
     87 N          14.2301   -6.8115   17.3864 N.2       1 ALA2        0.0000 
@<TRIPOS>BOND
@<TRIPOS>SUBSTRUCTURE
     1 ALA2        5 GROUP   
     2 PHE5        2 GROUP   
     3 GLY6        1 GROUP   
     4 CUB7        3 GROUP   
@<TRIPOS>SET

