#    Name: 2ikh_LIT_1_INTS_M
#    Modification time : Tue Mar 25 18:20:00 2014

@<TRIPOS>MOLECULE
2ikh_LIT_1_INTS_M
   32     0     6     0     0
SMALL
NO_CHARGES


@<TRIPOS>ATOM
      1 CA         17.9660   -5.6045   10.5710 C.3       2 GLC5        0.0000 
      2 CA         16.2700   -4.2610   10.6880 C.3       6 GLL5        0.0000 
      3 CA         19.6620   -6.9480   10.4540 C.3       4 GLP5        0.0000 
      4 CA         17.3465   -7.0760   12.0780 C.3       2 GLC5        0.0000 
      5 CA         16.2620   -5.5190   12.3050 C.3       6 GLL5        0.0000 
      6 CA         18.4310   -8.6330   11.8510 C.3       4 GLP5        0.0000 
      7 CA         18.0175   -8.6930   18.0420 C.3       2 GLC5        0.0000 
      8 CA         16.5930   -8.2270   16.6460 C.3       6 GLL5        0.0000 
      9 CA         19.4420   -9.1590   19.4380 C.3       4 GLP5        0.0000 
     10 CA         17.6165   -8.1825   19.1600 C.3       2 GLC5        0.0000 
     11 CA         16.8620   -7.0390   18.0080 C.3       6 GLL5        0.0000 
     12 CA         18.3710   -9.3260   20.3120 C.3       4 GLP5        0.0000 
     13 CA         18.6965   -5.8205   17.9500 C.3       2 GLC5        0.0000 
     14 CA         20.5310   -4.6020   17.8920 C.3       4 GLP5        0.0000 
     15 CA         17.1595   -5.3260   18.9845 C.3       2 GLC5        0.0000 
     16 CA         17.4570   -3.6130   19.9610 C.3       4 GLP5        0.0000 
     17 N          14.5715   -5.6380   20.4345 N.am      1 SEC2        0.0000 
     18 N          15.2050   -5.6500   19.1230 N.am      5 SEL2        0.0000 
     19 N          13.9380   -5.6260   21.7460 N.am      3 SEP2        0.0000 
     20 N          13.9630   -5.1360   18.7225 N.am      1 SEC2        0.0000 
     21 N          12.7210   -4.6220   18.3220 N.am      3 SEP2        0.0000 
     22 N          14.8585   -4.7910   15.8730 N.am      1 SEC2        0.0000 
     23 N          15.2820   -5.7330   16.8740 N.am      5 SEL2        0.0000 
     24 N          14.4350   -3.8490   14.8720 N.am      3 SEP2        0.0000 
     25 CA         15.8418   -5.3483    9.0203 C.3       2 GLC5        0.0000 
     26 CA         15.0170   -4.6900   10.7070 C.3       6 GLL5        0.0000 
     27 CA         16.0400   -6.2210    7.3430 C.3       4 GLP5        0.0000 
     28 CA         12.8895   -5.0600   11.3517 C.3       2 GLC5        0.0000 
     29 CA         10.7650   -4.9780   11.4150 C.3       4 GLP5        0.0000 
     30 CA         13.7605   -3.5700   11.8072 C.3       2 GLC5        0.0000 
     31 CA         15.0110   -5.5940   11.8700 C.3       6 GLL5        0.0000 
     32 CA         12.5070   -1.9980   12.3260 C.3       4 GLP5        0.0000 
@<TRIPOS>BOND
@<TRIPOS>SUBSTRUCTURE
     1 SEC2       17 GROUP        1 X    SEC  0     ROOT SEC X 2
     2 GLC5        1 GROUP        1 X    GLC  0     **** GLC X 6
     3 SEP2       19 GROUP        1 Y    SEP  0     ROOT SEP Y 9
     4 GLP5        3 GROUP        1 Y    GLP  0     **** GLP Y 13
     5 SEL2       18 GROUP        1 Z    SEL  0     ROOT SEL Z 16
     6 GLL5        2 GROUP        1 Z    GLL  0     **** GLL Z 20
@<TRIPOS>SET

