#    Name: 2ikh_LIT_1_ligand
#    Modification time : Tue Mar 25 18:20:00 2014

@<TRIPOS>MOLECULE
2ikh_LIT_1_ligand
   22    23     1     0     0
SMALL
NO_CHARGES


@<TRIPOS>ATOM
      1 C1         16.2700   -4.2610   10.6880 C.2       1 LIT600      0.0000 
      2 C2         15.0170   -4.6900   10.7070 C.2       1 LIT600      0.0000 
      3 C3         15.0110   -5.5940   11.8700 C.2       1 LIT600      0.0000 
      4 C4         16.2620   -5.5190   12.3050 C.2       1 LIT600      0.0000 
      5 C5         16.8670   -6.2090   13.4510 C.2       1 LIT600      0.0000 
      6 N6         18.0390   -5.8980   13.8650 N.2       1 LIT600      0.0000 
      7 N7         18.1560   -6.5720   15.1020 N.2       1 LIT600      0.0000 
      8 C8         17.0630   -7.1940   15.2840 C.2       1 LIT600      0.0000 
      9 S9         16.5930   -8.2270   16.6460 S.3       1 LIT600      0.0000 
     10 C10        16.8620   -7.0390   18.0080 C.3       1 LIT600      0.0000 
     11 C11        15.7570   -6.0130   17.9590 C.2       1 LIT600      0.0000 
     12 O12        15.2050   -5.6500   19.1230 O.co2     1 LIT600      0.0000 
     13 O13        15.2820   -5.7330   16.8740 O.co2     1 LIT600      0.0000 
     14 O14        16.1960   -7.0070   14.2720 O.3       1 LIT600      0.0000 
     15 O15        17.0900   -4.7200   11.6270 O.3       1 LIT600      0.0000 
     16 N16        16.7690   -3.4080    9.8020 N.pl3     1 LIT600      0.0000 
     17 O17        16.1680   -2.8780    8.8620 O.2       1 LIT600      0.0000 
     18 O18        17.9750   -3.2530   10.1140 O.2       1 LIT600      0.0000 
     19 H          14.2868   -4.5289   10.1881 H         1 LIT600      0.0000 
     20 H          14.2743   -6.0535   12.1493 H         1 LIT600      0.0000 
     21 H          17.8203   -6.6607   17.7797 H         1 LIT600      0.0000 
     22 H          16.8361   -7.6694   18.8539 H         1 LIT600      0.0000 
@<TRIPOS>BOND
     1    2    1 2    
     2   15    1 1    
     3   16    1 1    
     4    3    2 1    
     5   19    2 1    
     6    4    3 2    
     7   20    3 1    
     8    5    4 1    
     9   15    4 1    
    10    6    5 2    
    11   14    5 1    
    12    7    6 1    
    13    8    7 2    
    14    9    8 1    
    15   14    8 1    
    16   10    9 1    
    17   11   10 1    
    18   21   10 1    
    19   22   10 1    
    20   12   11 ar   
    21   13   11 ar   
    22   17   16 2    
    23   18   16 2    
@<TRIPOS>SUBSTRUCTURE
     1 LIT600      1 GROUP   
@<TRIPOS>SET

