#    Name: 4eo3_FMN_2_INTS_M
#    Modification time : Mon Mar 24 18:20:04 2014

@<TRIPOS>MOLECULE
4eo3_FMN_2_INTS_M
   89     0    12     0     0
SMALL
NO_CHARGES


@<TRIPOS>ATOM
      1 N          -9.1330   -0.1625   -8.1765 N.am      2 SEC2        0.0000 
      2 N          -9.0330    1.2180   -7.4780 N.am     10 SEL2        0.0000 
      3 N          -9.2330   -1.5430   -8.8750 N.am      6 SEP2        0.0000 
      4 N         -10.6125    1.0025   -7.1960 N.am      2 SEC2        0.0000 
      5 N         -12.1920    0.7870   -6.9140 N.am      6 SEP2        0.0000 
      6 N          -9.6450    0.4190  -10.2905 N.am      2 SEC2        0.0000 
      7 N          -8.9440    1.4750   -9.8980 N.am     10 SEL2        0.0000 
      8 N         -10.3460   -0.6370  -10.6830 N.am      6 SEP2        0.0000 
      9 N          -9.0885   -0.0340   -9.3865 N.am      2 SEC2        0.0000 
     10 N          -9.9540    2.1960  -11.0735 N.am      2 SEC2        0.0000 
     11 N         -10.9640    2.9170  -12.2490 N.am      6 SEP2        0.0000 
     12 O          -8.6915    4.1685   -9.6865 O.2       1 ALC1        0.0000 
     13 O          -8.3890    3.3810   -8.5600 O.2       9 ALL1        0.0000 
     14 O          -8.9940    4.9560  -10.8130 O.2       5 ALP1        0.0000 
     15 N          -8.3990    6.0440   -8.4040 N.am      2 SEC2        0.0000 
     16 N          -7.8390    5.2410   -7.2010 N.am     10 SEL2        0.0000 
     17 N          -8.9590    6.8470   -9.6070 N.am      6 SEP2        0.0000 
     18 N          -8.3390    5.8990   -5.7025 N.am      2 SEC2        0.0000 
     19 N          -8.8390    6.5570   -4.2040 N.am      6 SEP2        0.0000 
     20 N          -7.7320    6.5730   -6.6490 N.am      2 SEC2        0.0000 
     21 N          -7.6250    7.9050   -6.0970 N.am      6 SEP2        0.0000 
     22 N          -8.5720    5.1350   -4.5470 N.am      2 SEC2        0.0000 
     23 N          -8.3050    3.7130   -4.8900 N.am     10 SEL2        0.0000 
     24 CA         -7.1070    3.3055   -0.3500 C.3       4 GLC5        0.0000 
     25 CA         -9.0600    3.7800   -0.0560 C.3      12 GLL5        0.0000 
     26 CA         -5.1540    2.8310   -0.6440 C.3       8 GLP5        0.0000 
     27 CA         -7.9805    4.9155    0.8780 C.3       4 GLC5        0.0000 
     28 CA         -6.9010    6.0510    1.8120 C.3       8 GLP5        0.0000 
     29 CA        -10.2150    4.2810    1.5265 C.3       4 GLC5        0.0000 
     30 CA        -11.3700    4.7820    3.1090 C.3       8 GLP5        0.0000 
     31 CA        -10.9085   -0.5990   -0.4860 C.3       4 GLC5        0.0000 
     32 CA         -9.9810    1.0950   -0.2040 C.3      12 GLL5        0.0000 
     33 CA        -11.8360   -2.2930   -0.7680 C.3       8 GLP5        0.0000 
     34 CA        -10.8910    0.9390    1.4180 C.3       4 GLC5        0.0000 
     35 CA        -11.8010    0.7830    3.0400 C.3       8 GLP5        0.0000 
     36 CA        -10.7080   -0.6080   -1.7105 C.3       4 GLC5        0.0000 
     37 CA         -9.5800    1.0770   -2.6530 C.3      12 GLL5        0.0000 
     38 CA        -10.0680    3.5910   -4.2175 C.3       4 GLC5        0.0000 
     39 CA         -9.1750    1.7050   -3.8370 C.3      12 GLL5        0.0000 
     40 CA        -10.9610    5.4770   -4.5980 C.3       8 GLP5        0.0000 
     41 CA        -11.4525    0.4990   -5.7490 C.3       4 GLC5        0.0000 
     42 CA         -9.6620   -0.3480   -5.2680 C.3      12 GLL5        0.0000 
     43 CA        -13.2430    1.3460   -6.2300 C.3       8 GLP5        0.0000 
     44 NZ        -12.1870   -7.8720   -2.6175 N.4       3 LYC4        0.0000 
     45 NZ        -11.0870   -7.1880   -3.1810 N.4      11 LYL4        0.0000 
     46 NZ        -13.6400   -9.8180   -1.8620 N.4       7 LYP4        0.0000 
     47 NZ        -10.6940   -7.2355   -1.8560 N.4       3 LYC4        0.0000 
     48 NZ         -9.1760   -7.9820   -0.5720 N.4       7 LYP4        0.0000 
     49 N         -12.1870   -7.8720   -2.6175 N.am      2 SEC2        0.0000 
     50 N         -11.0870   -7.1880   -3.1810 N.am     10 SEL2        0.0000 
     51 N         -13.2870   -8.5560   -2.0540 N.am      6 SEP2        0.0000 
     52 N          -9.8625   -7.7450   -2.4645 N.am      2 SEC2        0.0000 
     53 N          -8.6380   -8.3020   -1.7480 N.am      6 SEP2        0.0000 
     54 N         -10.6940   -7.2355   -1.8560 N.am      2 SEC2        0.0000 
     55 N         -10.3010   -7.2830   -0.5310 N.am      6 SEP2        0.0000 
     56 N         -12.5045   -7.7040   -5.7030 N.am      2 SEC2        0.0000 
     57 N         -12.0600   -6.3610   -5.2430 N.am     10 SEL2        0.0000 
     58 N         -12.9490   -9.0470   -6.1630 N.am      6 SEP2        0.0000 
     59 N         -13.0865   -5.4435   -5.5555 N.am      2 SEC2        0.0000 
     60 N         -14.1130   -4.5260   -5.8680 N.am      6 SEP2        0.0000 
     61 NZ        -12.6930   -5.2400   -2.2130 N.4       3 LYC4        0.0000 
     62 NZ        -11.8280   -4.8680   -3.3140 N.4      11 LYL4        0.0000 
     63 NZ        -14.6060   -4.8330   -1.3540 N.4       7 LYP4        0.0000 
     64 N         -13.2060   -4.4355   -2.8565 N.am      2 SEC2        0.0000 
     65 N         -11.8280   -4.8680   -3.3140 N.am     10 SEL2        0.0000 
     66 N         -14.5840   -4.0030   -2.3990 N.am      6 SEP2        0.0000 
     67 N         -12.6930   -5.2400   -2.2130 N.am      2 SEC2        0.0000 
     68 N         -13.5580   -5.6120   -1.1120 N.am      6 SEP2        0.0000 
     69 N         -12.9705   -4.6970   -4.5910 N.am      2 SEC2        0.0000 
     70 CA         -7.2060    2.4692   -2.2212 C.3       4 GLC5        0.0000 
     71 CA         -8.7240    3.0340   -3.7610 C.3      12 GLL5        0.0000 
     72 CA         -5.7130    1.5610   -1.2870 C.3       8 GLP5        0.0000 
     73 CA         -7.7610    5.1543   -3.0088 C.3       4 GLC5        0.0000 
     74 CA         -6.8230    6.9310   -2.8620 C.3       8 GLP5        0.0000 
     75 CA         -9.9262    4.3511   -3.4346 C.3       4 GLC5        0.0000 
     76 CA         -9.0840    3.0730   -1.3870 C.3      12 GLL5        0.0000 
     77 CA        -11.8268    1.7580   -1.1260 C.3       4 GLC5        0.0000 
     78 CA        -13.8940    2.0850   -1.4250 C.3       8 GLP5        0.0000 
     79 CA         -7.6795    1.6592   -1.0491 C.3       4 GLC5        0.0000 
     80 CA         -8.7269    0.1300   -0.5760 C.3       4 GLC5        0.0000 
     81 CA         -9.5380    1.7670   -1.4500 C.3      12 GLL5        0.0000 
     82 CA         -7.7840   -0.9940    0.5880 C.3       8 GLP5        0.0000 
     83 CA         -7.5453    1.4760   -2.2660 C.3       4 GLC5        0.0000 
     84 CA        -10.7856   -2.3339   -5.4842 C.3       4 GLC5        0.0000 
     85 CA         -9.2690   -2.7050   -4.5060 C.3      12 GLL5        0.0000 
     86 CA        -12.3640   -2.8940   -6.2030 C.3       8 GLP5        0.0000 
     87 CA         -6.6395   -4.5655   -3.5265 C.3       4 GLC5        0.0000 
     88 CA         -8.2430   -3.7710   -4.2080 C.3      12 GLL5        0.0000 
     89 CA         -4.7410   -4.7010   -3.0860 C.3       8 GLP5        0.0000 
@<TRIPOS>BOND
@<TRIPOS>SUBSTRUCTURE
     1 ALC1       12 GROUP        1 X    ALC  0     ROOT ALC X 1
     2 SEC2        1 GROUP        1 X    SEC  0     **** SEC X 2
     3 LYC4       44 GROUP        1 X    LYC  0     **** LYC X 4
     4 GLC5       24 GROUP        1 X    GLC  0     **** GLC X 6
     5 ALP1       14 GROUP        1 Y    ALP  0     ROOT ALP Y 8
     6 SEP2        3 GROUP        1 Y    SEP  0     **** SEP Y 9
     7 LYP4       46 GROUP        1 Y    LYP  0     **** LYP Y 11
     8 GLP5       26 GROUP        1 Y    GLP  0     **** GLP Y 13
     9 ALL1       13 GROUP        1 Z    ALL  0     ROOT ALL Z 15
    10 SEL2        2 GROUP        1 Z    SEL  0     **** SEL Z 16
    11 LYL4       45 GROUP        1 Z    LYL  0     **** LYL Z 18
    12 GLL5       25 GROUP        1 Z    GLL  0     **** GLL Z 20
@<TRIPOS>SET

