#    Name: 4eo3_FMN_2_ligand
#    Modification time : Mon Mar 24 18:20:04 2014

@<TRIPOS>MOLECULE
4eo3_FMN_2_ligand
   50    52     1     0     0
SMALL
NO_CHARGES


@<TRIPOS>ATOM
      1 N1         -9.0330    1.2180   -7.4780 N.2       1 FMN401      0.0000 
      2 C2         -8.7930    2.0300   -8.6650 C.2       1 FMN401      0.0000 
      3 O2         -8.9440    1.4750   -9.8980 O.2       1 FMN401      0.0000 
      4 N3         -8.3890    3.3810   -8.5600 N.am      1 FMN401      0.0000 
      5 C4         -8.2290    3.9400   -7.3240 C.2       1 FMN401      0.0000 
      6 O4         -7.8390    5.2410   -7.2010 O.2       1 FMN401      0.0000 
      7 C4A        -8.4800    3.1320   -6.1250 C.2       1 FMN401      0.0000 
      8 N5         -8.3050    3.7130   -4.8900 N.2       1 FMN401      0.0000 
      9 C5A        -8.7240    3.0340   -3.7610 C.ar      1 FMN401      0.0000 
     10 C6         -8.6740    3.7210   -2.5500 C.ar      1 FMN401      0.0000 
     11 C7         -9.0840    3.0730   -1.3870 C.ar      1 FMN401      0.0000 
     12 C7M        -9.0600    3.7800   -0.0560 C.3       1 FMN401      0.0000 
     13 C8         -9.5380    1.7670   -1.4500 C.ar      1 FMN401      0.0000 
     14 C8M        -9.9810    1.0950   -0.2040 C.3       1 FMN401      0.0000 
     15 C9         -9.5800    1.0770   -2.6530 C.ar      1 FMN401      0.0000 
     16 C9A        -9.1750    1.7050   -3.8370 C.ar      1 FMN401      0.0000 
     17 N10        -9.1640    1.0360   -5.0890 N.pl3     1 FMN401      0.0000 
     18 C10        -8.8340    1.7830   -6.2200 C.2       1 FMN401      0.0000 
     19 C1'        -9.6620   -0.3480   -5.2680 C.3       1 FMN401      0.0000 
     20 C2'        -8.6290   -1.3370   -4.7820 C.3       1 FMN401      0.0000 
     21 O2'        -7.5790   -1.4240   -5.6750 O.3       1 FMN401      0.0000 
     22 C3'        -9.2690   -2.7050   -4.5060 C.3       1 FMN401      0.0000 
     23 O3'       -10.1390   -2.6080   -3.4260 O.3       1 FMN401      0.0000 
     24 C4'        -8.2430   -3.7710   -4.2080 C.3       1 FMN401      0.0000 
     25 O4'        -7.4860   -3.9940   -5.3480 O.3       1 FMN401      0.0000 
     26 C5'        -8.8330   -5.0890   -3.7260 C.3       1 FMN401      0.0000 
     27 O5'        -9.7930   -5.5230   -4.6320 O.3       1 FMN401      0.0000 
     28 P         -11.2010   -5.9860   -4.0710 P.3       1 FMN401      0.0000 
     29 O1P       -11.0870   -7.1880   -3.1810 O.co2     1 FMN401      0.0000 
     30 O2P       -12.0600   -6.3610   -5.2430 O.co2     1 FMN401      0.0000 
     31 O3P       -11.8280   -4.8680   -3.3140 O.co2     1 FMN401      0.0000 
     32 H          -8.2230    3.9179   -9.4170 H         1 FMN401      0.0000 
     33 H          -8.3416    4.6856   -2.5155 H         1 FMN401      0.0000 
     34 H          -9.9080    0.1033   -2.6809 H         1 FMN401      0.0000 
     35 H          -9.8700   -0.5401   -6.3233 H         1 FMN401      0.0000 
     36 H         -10.5861   -0.4919   -4.7031 H         1 FMN401      0.0000 
     37 H          -8.2750   -0.9607   -3.7971 H         1 FMN401      0.0000 
     38 H          -9.8051   -3.0010   -5.4116 H         1 FMN401      0.0000 
     39 H          -7.5969   -3.3889   -3.3982 H         1 FMN401      0.0000 
     40 H          -9.2464   -4.9144   -2.7214 H         1 FMN401      0.0000 
     41 H          -8.0003   -5.7999   -3.6176 H         1 FMN401      0.0000 
     42 H          -8.1375    4.0773    0.1900 H         1 FMN401      0.0000 
     43 H          -9.6399    4.5947   -0.0577 H         1 FMN401      0.0000 
     44 H          -9.3849    3.1905    0.6836 H         1 FMN401      0.0000 
     45 H          -9.2452    1.0419    0.4711 H         1 FMN401      0.0000 
     46 H         -10.7415    1.5791    0.2288 H         1 FMN401      0.0000 
     47 H         -10.2891    0.1593   -0.3760 H         1 FMN401      0.0000 
     48 H          -8.0093   -1.5514   -6.5687 H         1 FMN401      0.0000 
     49 H         -10.7158   -3.4228   -3.4845 H         1 FMN401      0.0000 
     50 H          -7.3784   -3.0926   -5.7675 H         1 FMN401      0.0000 
@<TRIPOS>BOND
     1    2    1 1    
     2   18    1 2    
     3    3    2 2    
     4    4    2 am   
     5    5    4 am   
     6   32    4 1    
     7    6    5 2    
     8    7    5 1    
     9    8    7 2    
    10   18    7 1    
    11    9    8 1    
    12   10    9 ar   
    13   16    9 ar   
    14   11   10 ar   
    15   33   10 1    
    16   12   11 1    
    17   13   11 ar   
    18   42   12 1    
    19   43   12 1    
    20   44   12 1    
    21   14   13 1    
    22   15   13 ar   
    23   45   14 1    
    24   46   14 1    
    25   47   14 1    
    26   16   15 ar   
    27   34   15 1    
    28   17   16 1    
    29   18   17 1    
    30   19   17 1    
    31   20   19 1    
    32   35   19 1    
    33   36   19 1    
    34   21   20 1    
    35   22   20 1    
    36   37   20 1    
    37   48   21 1    
    38   23   22 1    
    39   24   22 1    
    40   38   22 1    
    41   49   23 1    
    42   25   24 1    
    43   26   24 1    
    44   39   24 1    
    45   50   25 1    
    46   27   26 1    
    47   40   26 1    
    48   41   26 1    
    49   28   27 1    
    50   29   28 ar   
    51   30   28 ar   
    52   31   28 ar   
@<TRIPOS>SUBSTRUCTURE
     1 FMN401      1 GROUP   
@<TRIPOS>SET

