#    Name: 4fjy_FJY_1_INTS_M
#    Modification time : Mon Mar 24 20:08:42 2014

@<TRIPOS>MOLECULE
4fjy_FJY_1_INTS_M
   87     0     6     0     0
SMALL
NO_CHARGES


@<TRIPOS>ATOM
      1 CA         24.2720   10.5390   24.6970 C.3       2 GLC5        0.0000 
      2 CA         22.9790   11.8500   24.1950 C.3       6 GLL5        0.0000 
      3 CA         25.5650    9.2280   25.1990 C.3       4 GLP5        0.0000 
      4 CA         22.7660    9.9930   25.8000 C.3       2 GLC5        0.0000 
      5 CA         21.7250   11.2500   24.8130 C.3       6 GLL5        0.0000 
      6 CA         23.8070    8.7360   26.7870 C.3       4 GLP5        0.0000 
      7 CA         20.5965   10.6085   26.1825 C.3       2 GLC5        0.0000 
      8 CA         19.4680    9.9670   27.5520 C.3       4 GLP5        0.0000 
      9 CA         21.6955   12.2735   26.7675 C.3       2 GLC5        0.0000 
     10 CA         21.6660   13.2970   28.7220 C.3       4 GLP5        0.0000 
     11 N          19.2390   11.2235   24.9305 N.am      1 SEC2        0.0000 
     12 N          20.6310   12.1750   24.8460 N.am      5 SEL2        0.0000 
     13 N          17.8470   10.2720   25.0150 N.am      3 SEP2        0.0000 
     14 CA         19.1400   10.9730   23.1335 C.3       2 GLC5        0.0000 
     15 CA         20.2370   12.4560   23.5310 C.3       6 GLL5        0.0000 
     16 CA         18.0430    9.4900   22.7360 C.3       4 GLP5        0.0000 
     17 CA         21.2855   14.9235   24.5395 C.3       2 GLC5        0.0000 
     18 CA         21.2570   13.5490   23.3260 C.3       6 GLL5        0.0000 
     19 CA         21.3140   16.2980   25.7530 C.3       4 GLP5        0.0000 
     20 CA         25.3885   13.9055   24.0265 C.3       2 GLC5        0.0000 
     21 CA         24.8710   13.1460   22.2340 C.3       6 GLL5        0.0000 
     22 CA         25.9060   14.6650   25.8190 C.3       4 GLP5        0.0000 
     23 CA         27.4385   14.5610   21.9385 C.3       2 GLC5        0.0000 
     24 CA         25.6610   13.8230   21.2950 C.3       6 GLL5        0.0000 
     25 CA         29.2160   15.2990   22.5820 C.3       4 GLP5        0.0000 
     26 CA         27.7460   15.3145   18.0810 C.3       2 GLC5        0.0000 
     27 CA         27.0380   16.3710   19.9080 C.3       6 GLL5        0.0000 
     28 CA         28.4540   14.2580   16.2540 C.3       4 GLP5        0.0000 
     29 CA         28.1270   15.8350   21.2450 C.3       2 GLC5        0.0000 
     30 CA         24.8820   15.0425   16.4710 C.3       2 GLC5        0.0000 
     31 CA         25.7400   15.0170   18.1850 C.3       6 GLL5        0.0000 
     32 CA         24.0240   15.0680   14.7570 C.3       4 GLP5        0.0000 
     33 CA         27.0970   14.6375   17.2195 C.3       2 GLC5        0.0000 
     34 CA         23.7025   18.0690   18.3465 C.3       2 GLC5        0.0000 
     35 CA         24.6560   16.9380   19.3780 C.3       6 GLL5        0.0000 
     36 CA         22.7490   19.2000   17.3150 C.3       4 GLP5        0.0000 
     37 CA         21.9710   19.1520   23.3450 C.3       2 GLC5        0.0000 
     38 CA         22.2300   17.9410   22.0120 C.3       6 GLL5        0.0000 
     39 CA         21.7120   20.3630   24.6780 C.3       4 GLP5        0.0000 
     40 CA         21.7720   17.1195   23.8825 C.3       2 GLC5        0.0000 
     41 CA         23.5970   17.2650   23.2175 C.3       2 GLC5        0.0000 
     42 CA         24.9640   16.5890   24.4230 C.3       4 GLP5        0.0000 
     43 CA         22.1035   13.0875   16.8275 C.3       2 GLC5        0.0000 
     44 CA         21.4400   15.1010   16.5370 C.3       6 GLL5        0.0000 
     45 CA         22.7670   11.0740   17.1180 C.3       4 GLP5        0.0000 
     46 CA         19.2045   15.6910   13.2290 C.3       2 GLC5        0.0000 
     47 CA         19.4740   15.0980   15.2480 C.3       6 GLL5        0.0000 
     48 CA         18.9350   16.2840   11.2100 C.3       4 GLP5        0.0000 
     49 CA         20.7455   17.9765   17.3305 C.3       2 GLC5        0.0000 
     50 CA         20.1740   16.6640   18.4510 C.3       6 GLL5        0.0000 
     51 CA         21.3170   19.2890   16.2100 C.3       4 GLP5        0.0000 
     52 CA         19.7325   20.2050   23.8465 C.3       2 GLC5        0.0000 
     53 CA         17.7530   20.0470   23.0150 C.3       6 GLL5        0.0000 
     54 CA         17.3970   21.9525   22.7240 C.3       2 GLC5        0.0000 
     55 CA         17.0410   23.8580   22.4330 C.3       4 GLP5        0.0000 
     56 CA         23.0930   10.3050   23.2560 C.3       2 GLC5        0.0000 
     57 CA         23.8340    9.0600   22.0080 C.3       4 GLP5        0.0000 
     58 CA         23.5005   12.8290   25.4840 C.3       2 GLC5        0.0000 
     59 CA         24.6490   14.1080   26.4640 C.3       4 GLP5        0.0000 
     60 CA         20.8615   12.5203   21.5332 C.3       2 GLC5        0.0000 
     61 CA         20.9760   12.0380   19.6380 C.3       4 GLP5        0.0000 
     62 CA         24.1262   15.3337   23.2375 C.3       2 GLC5        0.0000 
     63 CA         23.0340   14.6050   21.6820 C.3       6 GLL5        0.0000 
     64 CA         22.2594   13.3584   20.5200 C.3       2 GLC5        0.0000 
     65 CA         23.5430   13.5520   22.4220 C.3       6 GLL5        0.0000 
     66 CA         25.6215   11.7203   20.8803 C.3       2 GLC5        0.0000 
     67 CA         25.9770    9.9560   19.9960 C.3       4 GLP5        0.0000 
     68 CA         25.0120   15.5215   22.6990 C.3       2 GLC5        0.0000 
     69 CA         22.2835   17.5448   17.7368 C.3       2 GLC5        0.0000 
     70 CA         21.5030   16.2810   18.6420 C.3       6 GLL5        0.0000 
     71 CA         21.3970   13.9638   18.8983 C.3       2 GLC5        0.0000 
     72 CA         22.4891   15.2299   15.7440 C.3       2 GLC5        0.0000 
     73 CA         20.1220   15.4840   16.3560 C.3       6 GLL5        0.0000 
     74 CA         20.5156   16.9623   15.8601 C.3       2 GLC5        0.0000 
     75 CA         21.2260   18.1930   15.1420 C.3       4 GLP5        0.0000 
     76 CA         18.3413   14.5207   15.9038 C.3       2 GLC5        0.0000 
     77 CA         17.0420   13.2620   15.2520 C.3       4 GLP5        0.0000 
     78 CA         21.8766   18.3312   18.8448 C.3       2 GLC5        0.0000 
     79 CA         22.1890   16.6960   19.7890 C.3       6 GLL5        0.0000 
     80 CA         20.6058   19.8143   23.0900 C.3       2 GLC5        0.0000 
     81 CA         19.3650   18.5970   21.3480 C.3       6 GLL5        0.0000 
     82 CA         18.7123   17.5625   23.9310 C.3       2 GLC5        0.0000 
     83 CA         18.2320   17.9870   21.8980 C.3       6 GLL5        0.0000 
     84 CA         19.6030   16.7710   25.5390 C.3       4 GLP5        0.0000 
     85 CA         17.4580   19.4365   24.7617 C.3       2 GLC5        0.0000 
     86 CA         17.4110   18.7210   22.7480 C.3       6 GLL5        0.0000 
     87 CA         17.3340   19.4890   26.6420 C.3       4 GLP5        0.0000 
@<TRIPOS>BOND
@<TRIPOS>SUBSTRUCTURE
     1 SEC2       11 GROUP        1 X    SEC  0     ROOT SEC X 2
     2 GLC5        1 GROUP        1 X    GLC  0     **** GLC X 6
     3 SEP2       13 GROUP        1 Y    SEP  0     ROOT SEP Y 9
     4 GLP5        3 GROUP        1 Y    GLP  0     **** GLP Y 13
     5 SEL2       12 GROUP        1 Z    SEL  0     ROOT SEL Z 16
     6 GLL5        2 GROUP        1 Z    GLL  0     **** GLL Z 20
@<TRIPOS>SET

