#    Name: 4fjy_FJY_1_ligand
#    Modification time : Mon Mar 24 20:08:42 2014

@<TRIPOS>MOLECULE
4fjy_FJY_1_ligand
   65    70     1     0     0
SMALL
NO_CHARGES


@<TRIPOS>ATOM
      1 C26        22.9790   11.8500   24.1950 C.3       1 FJY1204     0.0000 
      2 C27        21.7250   11.2500   24.8130 C.3       1 FJY1204     0.0000 
      3 O1         20.6310   12.1750   24.8460 O.3       1 FJY1204     0.0000 
      4 C28        20.2370   12.4560   23.5310 C.3       1 FJY1204     0.0000 
      5 C29        21.2570   13.5490   23.3260 C.3       1 FJY1204     0.0000 
      6 N4         22.6270   12.9770   23.3140 N.3       1 FJY1204     0.0000 
      7 C22        23.5430   13.5520   22.4220 C.ar      1 FJY1204     0.0000 
      8 C23        23.0340   14.6050   21.6820 C.ar      1 FJY1204     0.0000 
      9 C19        23.7970   15.2790   20.7520 C.ar      1 FJY1204     0.0000 
     10 C21        24.8710   13.1460   22.2340 C.ar      1 FJY1204     0.0000 
     11 C20        25.6610   13.8230   21.2950 C.ar      1 FJY1204     0.0000 
     12 C18        25.1210   14.8910   20.5580 C.ar      1 FJY1204     0.0000 
     13 C17        25.6830   15.8170   19.4820 C.3       1 FJY1204     0.0000 
     14 C24        27.0380   16.3710   19.9080 C.3       1 FJY1204     0.0000 
     15 C25        25.7400   15.0170   18.1850 C.3       1 FJY1204     0.0000 
     16 C16        24.6560   16.9380   19.3780 C.3       1 FJY1204     0.0000 
     17 N2         23.4660   16.3110   19.9730 N.pl3     1 FJY1204     0.0000 
     18 C7         22.1890   16.6960   19.7890 C.ar      1 FJY1204     0.0000 
     19 C8         21.5040   17.4800   20.7370 C.ar      1 FJY1204     0.0000 
     20 C11        22.2300   17.9410   22.0120 C.3       1 FJY1204     0.0000 
     21 C1         21.5030   16.2810   18.6420 C.ar      1 FJY1204     0.0000 
     22 C6         22.1330   15.4980   17.6750 C.ar      1 FJY1204     0.0000 
     23 C5         21.4400   15.1010   16.5370 C.ar      1 FJY1204     0.0000 
     24 C4         20.1220   15.4840   16.3560 C.ar      1 FJY1204     0.0000 
     25 F1         19.4740   15.0980   15.2480 F         1 FJY1204     0.0000 
     26 C3         19.4830   16.2680   17.3090 C.ar      1 FJY1204     0.0000 
     27 C2         20.1740   16.6640   18.4510 C.ar      1 FJY1204     0.0000 
     28 N1         19.5510   17.4170   19.3650 N.pl3     1 FJY1204     0.0000 
     29 C9         20.1620   17.8370   20.4860 C.ar      1 FJY1204     0.0000 
     30 C10        19.3650   18.5970   21.3480 C.ar      1 FJY1204     0.0000 
     31 C12        18.2320   17.9870   21.8980 C.ar      1 FJY1204     0.0000 
     32 C13        17.4110   18.7210   22.7480 C.ar      1 FJY1204     0.0000 
     33 C14        17.7530   20.0470   23.0150 C.ar      1 FJY1204     0.0000 
     34 N3         18.8330   20.6060   22.4780 N.ar      1 FJY1204     0.0000 
     35 C15        19.6340   19.9340   21.6560 C.ar      1 FJY1204     0.0000 
     36 H          23.4972   11.0696   23.6306 H         1 FJY1204     0.0000 
     37 H          23.6388   12.1846   25.0005 H         1 FJY1204     0.0000 
     38 H          21.9857   10.9011   25.8319 H         1 FJY1204     0.0000 
     39 H          21.4650   10.3424   24.2329 H         1 FJY1204     0.0000 
     40 H          19.2797   12.8728   23.4662 H         1 FJY1204     0.0000 
     41 H          20.4400   11.6770   22.8630 H         1 FJY1204     0.0000 
     42 H          21.1634   14.2810   24.1324 H         1 FJY1204     0.0000 
     43 H          21.0535   14.0546   22.3784 H         1 FJY1204     0.0000 
     44 H          22.0421   14.8962   21.8341 H         1 FJY1204     0.0000 
     45 H          25.2556   12.3721   22.7706 H         1 FJY1204     0.0000 
     46 H          26.6344   13.5402   21.1442 H         1 FJY1204     0.0000 
     47 H          24.4986   17.1716   18.3562 H         1 FJY1204     0.0000 
     48 H          24.9846   17.7650   19.9536 H         1 FJY1204     0.0000 
     49 H          23.1133   15.2144   17.8059 H         1 FJY1204     0.0000 
     50 H          21.9109   14.5201   15.8279 H         1 FJY1204     0.0000 
     51 H          18.5074   16.5541   17.1729 H         1 FJY1204     0.0000 
     52 H          18.5405   17.6932   19.2016 H         1 FJY1204     0.0000 
     53 H          18.0137   17.0145   21.6758 H         1 FJY1204     0.0000 
     54 H          16.5839   18.3043   23.1642 H         1 FJY1204     0.0000 
     55 H          17.1267   20.5900   23.6562 H         1 FJY1204     0.0000 
     56 H          20.4699   20.3767   21.2257 H         1 FJY1204     0.0000 
     57 H          27.7067   15.6426   20.0575 H         1 FJY1204     0.0000 
     58 H          27.4221   16.9844   19.2179 H         1 FJY1204     0.0000 
     59 H          26.9755   16.8909   20.7600 H         1 FJY1204     0.0000 
     60 H          26.0980   15.5628   17.4274 H         1 FJY1204     0.0000 
     61 H          26.3280   14.2127   18.2703 H         1 FJY1204     0.0000 
     62 H          24.8356   14.6910   17.9096 H         1 FJY1204     0.0000 
     63 H          22.5519   17.1666   22.5567 H         1 FJY1204     0.0000 
     64 H          23.0295   18.5036   21.8013 H         1 FJY1204     0.0000 
     65 H          21.6347   18.4868   22.6016 H         1 FJY1204     0.0000 
@<TRIPOS>BOND
     1    2    1 1    
     2    6    1 1    
     3   36    1 1    
     4   37    1 1    
     5    3    2 1    
     6   38    2 1    
     7   39    2 1    
     8    4    3 1    
     9    5    4 1    
    10   40    4 1    
    11   41    4 1    
    12    6    5 1    
    13   42    5 1    
    14   43    5 1    
    15    7    6 1    
    16    8    7 ar   
    17   10    7 ar   
    18    9    8 ar   
    19   44    8 1    
    20   12    9 ar   
    21   17    9 1    
    22   11   10 ar   
    23   45   10 1    
    24   12   11 ar   
    25   46   11 1    
    26   13   12 1    
    27   14   13 1    
    28   15   13 1    
    29   16   13 1    
    30   57   14 1    
    31   58   14 1    
    32   59   14 1    
    33   60   15 1    
    34   61   15 1    
    35   62   15 1    
    36   17   16 1    
    37   47   16 1    
    38   48   16 1    
    39   18   17 1    
    40   19   18 ar   
    41   21   18 ar   
    42   20   19 1    
    43   29   19 ar   
    44   63   20 1    
    45   64   20 1    
    46   65   20 1    
    47   22   21 ar   
    48   27   21 ar   
    49   23   22 ar   
    50   49   22 1    
    51   24   23 ar   
    52   50   23 1    
    53   25   24 1    
    54   26   24 ar   
    55   27   26 ar   
    56   51   26 1    
    57   28   27 ar   
    58   29   28 ar   
    59   52   28 1    
    60   30   29 1    
    61   31   30 ar   
    62   35   30 ar   
    63   32   31 ar   
    64   53   31 1    
    65   33   32 ar   
    66   54   32 1    
    67   34   33 ar   
    68   55   33 1    
    69   35   34 ar   
    70   56   35 1    
@<TRIPOS>SUBSTRUCTURE
     1 FJY1204     1 GROUP   
@<TRIPOS>SET

