#    Name: 3opy_ATP_3_INTS_M
#    Modification time : Tue Mar 25 04:59:22 2014

@<TRIPOS>MOLECULE
3opy_ATP_3_INTS_M
   59     0    12     0     0
SMALL
NO_CHARGES


@<TRIPOS>ATOM
      1 NZ        -63.9240  -52.9615  128.0060 N.4       3 LYC4        0.0000 
      2 NZ        -64.5460  -54.3310  129.0860 N.4      11 LYL4        0.0000 
      3 NZ        -63.3020  -51.5920  126.9260 N.4       7 LYP4        0.0000 
      4 N         -64.9025  -55.5515  128.4825 N.am      2 SEC2        0.0000 
      5 N         -64.5460  -54.3310  129.0860 N.am     10 SEL2        0.0000 
      6 N         -65.2590  -56.7720  127.8790 N.am      6 SEP2        0.0000 
      7 N         -66.6925  -55.5560  130.2440 N.am      2 SEC2        0.0000 
      8 N         -66.7600  -53.8860  129.9790 N.am     10 SEL2        0.0000 
      9 N         -66.6250  -57.2260  130.5090 N.am      6 SEP2        0.0000 
     10 N         -67.4885  -54.4910  130.9555 N.am      2 SEC2        0.0000 
     11 N         -68.2170  -55.0960  131.9320 N.am      6 SEP2        0.0000 
     12 N         -65.7910  -56.0060  130.9995 N.am      2 SEC2        0.0000 
     13 N         -64.9570  -54.7860  131.4900 N.am     10 SEL2        0.0000 
     14 N         -66.5870  -54.9410  131.7110 N.am      2 SEC2        0.0000 
     15 NZ        -69.3680  -50.8365  129.1230 N.4       3 LYC4        0.0000 
     16 NZ        -68.0140  -51.3700  129.2530 N.4      11 LYL4        0.0000 
     17 NZ        -71.4230  -51.4080  129.2090 N.4       7 LYP4        0.0000 
     18 N         -69.4245  -51.9835  129.2015 N.am      2 SEC2        0.0000 
     19 N         -68.0140  -51.3700  129.2530 N.am     10 SEL2        0.0000 
     20 N         -70.8350  -52.5970  129.1500 N.am      6 SEP2        0.0000 
     21 N         -69.3680  -50.8365  129.1230 N.am      2 SEC2        0.0000 
     22 N         -70.7220  -50.3030  128.9930 N.am      6 SEP2        0.0000 
     23 NZ        -70.1925  -50.6800  130.1120 N.4       3 LYC4        0.0000 
     24 NZ        -68.9620  -49.9520  131.0150 N.4      11 LYL4        0.0000 
     25 CA        -68.8315  -46.5555  127.2525 C.3       4 GLC5        0.0000 
     26 CA        -67.8860  -46.0420  128.5710 C.3      12 GLL5        0.0000 
     27 CA        -69.7770  -47.0690  125.9340 C.3       8 GLP5        0.0000 
     28 CA        -66.0115  -43.4925  126.7365 C.3       4 GLC5        0.0000 
     29 CA        -66.9460  -45.3130  127.5830 C.3      12 GLL5        0.0000 
     30 CA        -65.0770  -41.6720  125.8900 C.3       8 GLP5        0.0000 
     31 N         -66.8280  -43.5110  126.6490 N.am      2 SEC2        0.0000 
     32 N         -66.7220  -43.9740  128.1070 N.am     10 SEL2        0.0000 
     33 N         -66.9340  -43.0480  125.1910 N.am      6 SEP2        0.0000 
     34 CA        -63.7810  -45.5815  128.1135 C.3       4 GLC5        0.0000 
     35 CA        -65.6350  -46.1190  127.7520 C.3      12 GLL5        0.0000 
     36 CA        -61.9270  -45.0440  128.4750 C.3       8 GLP5        0.0000 
     37 N         -63.9100  -50.3850  126.4900 N.am      2 SEC2        0.0000 
     38 N         -64.5180  -49.1780  126.0540 N.am     10 SEL2        0.0000 
     39 N         -63.3020  -51.5920  126.9260 N.am      6 SEP2        0.0000 
     40 CA        -63.3830  -49.5450  126.2290 C.3       4 GLC5        0.0000 
     41 CA        -64.5960  -48.3220  125.0060 C.3      12 GLL5        0.0000 
     42 CA        -62.1700  -50.7680  127.4520 C.3       8 GLP5        0.0000 
     43 CA        -63.0050  -47.8735  122.1715 C.3       4 GLC5        0.0000 
     44 CA        -64.3290  -48.5460  123.6540 C.3      12 GLL5        0.0000 
     45 CA        -61.6810  -47.2010  120.6890 C.3       8 GLP5        0.0000 
     46 O         -63.7880  -49.7280  121.8210 O.2       1 ALC1        0.0000 
     47 O         -63.8830  -49.7780  123.2130 O.2       9 ALL1        0.0000 
     48 O         -63.6930  -49.6780  120.4290 O.2       5 ALP1        0.0000 
     49 N         -64.6335  -47.3195  121.3195 N.am      2 SEC2        0.0000 
     50 N         -64.5220  -47.4940  122.7960 N.am     10 SEL2        0.0000 
     51 N         -64.7450  -47.1450  119.8430 N.am      6 SEP2        0.0000 
     52 CA        -65.9125  -46.1685  121.7965 C.3       4 GLC5        0.0000 
     53 CA        -64.9490  -46.2740  123.2990 C.3      12 GLL5        0.0000 
     54 CA        -66.8760  -46.0630  120.2940 C.3       8 GLP5        0.0000 
     55 CA        -63.3150  -46.7375  121.9940 C.3       4 GLC5        0.0000 
     56 CA        -67.4333  -46.8305  126.6567 C.3       4 GLC5        0.0000 
     57 CA        -68.5760  -47.9450  125.6460 C.3       8 GLP5        0.0000 
     58 CA        -66.6942  -47.8102  125.4275 C.3       4 GLC5        0.0000 
     59 CA        -65.0290  -47.0290  125.4120 C.3      12 GLL5        0.0000 
@<TRIPOS>BOND
@<TRIPOS>SUBSTRUCTURE
     1 ALC1       46 GROUP        1 X    ALC  0     ROOT ALC X 1
     2 SEC2        4 GROUP        1 X    SEC  0     **** SEC X 2
     3 LYC4        1 GROUP        1 X    LYC  0     **** LYC X 4
     4 GLC5       25 GROUP        1 X    GLC  0     **** GLC X 6
     5 ALP1       48 GROUP        1 Y    ALP  0     ROOT ALP Y 8
     6 SEP2        6 GROUP        1 Y    SEP  0     **** SEP Y 9
     7 LYP4        3 GROUP        1 Y    LYP  0     **** LYP Y 11
     8 GLP5       27 GROUP        1 Y    GLP  0     **** GLP Y 13
     9 ALL1       47 GROUP        1 Z    ALL  0     ROOT ALL Z 15
    10 SEL2        5 GROUP        1 Z    SEL  0     **** SEL Z 16
    11 LYL4        2 GROUP        1 Z    LYL  0     **** LYL Z 18
    12 GLL5       26 GROUP        1 Z    GLL  0     **** GLL Z 20
@<TRIPOS>SET

