#    Name: 3opy_ATP_3_ligand
#    Modification time : Tue Mar 25 04:59:22 2014

@<TRIPOS>MOLECULE
3opy_ATP_3_ligand
   43    45     1     0     0
SMALL
NO_CHARGES


@<TRIPOS>ATOM
      1 PG        -65.2610  -53.8390  130.3380 P.3       1 ATP942      0.0000 
      2 O1G       -64.5460  -54.3310  129.0860 O.co2     1 ATP942      0.0000 
      3 O2G       -66.7600  -53.8860  129.9790 O.co2     1 ATP942      0.0000 
      4 O3G       -64.9570  -54.7860  131.4900 O.co2     1 ATP942      0.0000 
      5 PB        -65.0700  -51.1020  131.4730 P.3       1 ATP942      0.0000 
      6 O1B       -64.6700  -51.2260  132.9850 O.co2     1 ATP942      0.0000 
      7 O2B       -64.3380  -49.8730  130.8220 O.co2     1 ATP942      0.0000 
      8 O3B       -64.6360  -52.4060  130.6600 O.3       1 ATP942      0.0000 
      9 PA        -67.6320  -50.3060  130.3200 P.3       1 ATP942      0.0000 
     10 O1A       -68.0140  -51.3700  129.2530 O.co2     1 ATP942      0.0000 
     11 O2A       -68.9620  -49.9520  131.0150 O.co2     1 ATP942      0.0000 
     12 O3A       -66.6380  -50.8700  131.4230 O.3       1 ATP942      0.0000 
     13 O5'       -67.0780  -48.9160  129.7230 O.3       1 ATP942      0.0000 
     14 C5'       -67.4280  -47.7330  130.4440 C.3       1 ATP942      0.0000 
     15 C4'       -66.9700  -46.4820  129.7020 C.3       1 ATP942      0.0000 
     16 O4'       -65.6650  -46.6980  129.1000 O.3       1 ATP942      0.0000 
     17 C3'       -67.8860  -46.0420  128.5710 C.3       1 ATP942      0.0000 
     18 O3'       -69.0970  -45.3750  128.9510 O.3       1 ATP942      0.0000 
     19 C2'       -66.9460  -45.3130  127.5830 C.3       1 ATP942      0.0000 
     20 O2'       -66.7220  -43.9740  128.1070 O.3       1 ATP942      0.0000 
     21 C1'       -65.6350  -46.1190  127.7520 C.3       1 ATP942      0.0000 
     22 N9        -65.2080  -47.1490  126.7850 N.pl3     1 ATP942      0.0000 
     23 C8        -64.8810  -48.4610  127.0920 C.2       1 ATP942      0.0000 
     24 N7        -64.5180  -49.1780  126.0540 N.2       1 ATP942      0.0000 
     25 C5        -64.5960  -48.3220  125.0060 C.ar      1 ATP942      0.0000 
     26 C6        -64.3290  -48.5460  123.6540 C.ar      1 ATP942      0.0000 
     27 N6        -63.8830  -49.7780  123.2130 N.pl3     1 ATP942      0.0000 
     28 N1        -64.5220  -47.4940  122.7960 N.ar      1 ATP942      0.0000 
     29 C2        -64.9490  -46.2740  123.2990 C.ar      1 ATP942      0.0000 
     30 N3        -65.2230  -45.9470  124.6010 N.ar      1 ATP942      0.0000 
     31 C4        -65.0290  -47.0290  125.4120 C.ar      1 ATP942      0.0000 
     32 H         -66.9660  -47.7171  131.4443 H         1 ATP942      0.0000 
     33 H         -68.5175  -47.6557  130.5904 H         1 ATP942      0.0000 
     34 H         -66.8961  -45.6582  130.4114 H         1 ATP942      0.0000 
     35 H         -68.1346  -47.0158  128.0285 H         1 ATP942      0.0000 
     36 H         -67.2917  -45.3765  126.6441 H         1 ATP942      0.0000 
     37 H         -64.8088  -45.3300  127.8080 H         1 ATP942      0.0000 
     38 H         -64.9298  -48.7959  128.0356 H         1 ATP942      0.0000 
     39 H         -63.7410  -49.8675  122.2272 H         1 ATP942      0.0000 
     40 H         -63.7410  -50.4728  123.9181 H         1 ATP942      0.0000 
     41 H         -65.0810  -45.4820  122.5631 H         1 ATP942      0.0000 
     42 H         -69.8138  -45.8098  128.4059 H         1 ATP942      0.0000 
     43 H         -67.5779  -43.7277  128.5618 H         1 ATP942      0.0000 
@<TRIPOS>BOND
     1    2    1 ar   
     2    3    1 ar   
     3    4    1 ar   
     4    8    1 1    
     5    6    5 ar   
     6    7    5 ar   
     7    8    5 1    
     8   12    5 1    
     9   10    9 ar   
    10   11    9 ar   
    11   12    9 1    
    12   13    9 1    
    13   14   13 1    
    14   15   14 1    
    15   32   14 1    
    16   33   14 1    
    17   16   15 1    
    18   17   15 1    
    19   34   15 1    
    20   21   16 1    
    21   18   17 1    
    22   19   17 1    
    23   35   17 1    
    24   42   18 1    
    25   20   19 1    
    26   21   19 1    
    27   36   19 1    
    28   43   20 1    
    29   22   21 1    
    30   37   21 1    
    31   23   22 1    
    32   31   22 1    
    33   24   23 2    
    34   38   23 1    
    35   25   24 1    
    36   26   25 ar   
    37   31   25 ar   
    38   27   26 1    
    39   28   26 ar   
    40   39   27 1    
    41   40   27 1    
    42   29   28 ar   
    43   30   29 ar   
    44   41   29 1    
    45   31   30 ar   
@<TRIPOS>SUBSTRUCTURE
     1 ATP942      1 GROUP   
@<TRIPOS>SET

