#    Name: 3pcu_LX8_1_INTS_M
#    Modification time : Tue Mar 25 06:16:41 2014

@<TRIPOS>MOLECULE
3pcu_LX8_1_INTS_M
   75     0     6     0     0
SMALL
NO_CHARGES


@<TRIPOS>ATOM
      1 CA        -20.6140    1.3060    7.2240 C.3       2 GLC5        0.0000 
      2 CA        -19.3250   -0.0320    7.4080 C.3       6 GLL5        0.0000 
      3 CA        -21.9030    2.6440    7.0400 C.3       4 GLP5        0.0000 
      4 CA        -20.3455   -1.0875    8.5365 C.3       2 GLC5        0.0000 
      5 CA        -21.3660   -2.1430    9.6650 C.3       4 GLP5        0.0000 
      6 CA        -18.7495    1.0805    9.0540 C.3       2 GLC5        0.0000 
      7 CA        -18.1740    2.1930   10.7000 C.3       4 GLP5        0.0000 
      8 CA        -22.1565    8.9040    2.0675 C.3       2 GLC5        0.0000 
      9 CA        -20.9670    9.7580    2.1320 C.3       6 GLL5        0.0000 
     10 CA        -23.3460    8.0500    2.0030 C.3       4 GLP5        0.0000 
     11 CA        -20.5155   10.2720    0.4015 C.3       2 GLC5        0.0000 
     12 CA        -20.0640   10.7860   -1.3290 C.3       4 GLP5        0.0000 
     13 CA        -21.0525   10.2205    3.8660 C.3       2 GLC5        0.0000 
     14 CA        -21.1380   10.6830    5.6000 C.3       4 GLP5        0.0000 
     15 CA        -20.9500   11.4555    1.7790 C.3       2 GLC5        0.0000 
     16 CA        -20.9330   13.1530    1.4260 C.3       4 GLP5        0.0000 
     17 CA        -22.5035   -1.8960    6.2795 C.3       2 GLC5        0.0000 
     18 CA        -20.6690   -1.7170    5.6440 C.3       6 GLL5        0.0000 
     19 CA        -24.3380   -2.0750    6.9150 C.3       4 GLP5        0.0000 
     20 CA        -21.0340   -2.9580    6.9165 C.3       2 GLC5        0.0000 
     21 CA        -21.3990   -4.1990    8.1890 C.3       4 GLP5        0.0000 
     22 CA        -19.9050   -3.4680    6.6900 C.3       2 GLC5        0.0000 
     23 CA        -18.4110   -2.7370    5.1910 C.3       6 GLL5        0.0000 
     24 CA        -16.9695   -2.8475    3.6505 C.3       2 GLC5        0.0000 
     25 CA        -15.5280   -2.9580    2.1100 C.3       4 GLP5        0.0000 
     26 CA        -18.4305   -4.3655    4.9230 C.3       2 GLC5        0.0000 
     27 CA        -18.4500   -5.9940    4.6550 C.3       4 GLP5        0.0000 
     28 CA        -20.0370    7.5175    4.4145 C.3       2 GLC5        0.0000 
     29 CA        -18.8480    7.4990    3.0840 C.3       6 GLL5        0.0000 
     30 CA        -21.2260    7.5360    5.7450 C.3       4 GLP5        0.0000 
     31 CA        -16.5940    6.8405   -0.3430 C.3       2 GLC5        0.0000 
     32 CA        -17.4100    7.1880    1.0170 C.3       6 GLL5        0.0000 
     33 CA        -15.7780    6.4930   -1.7030 C.3       4 GLP5        0.0000 
     34 N         -18.2550   10.9190    2.7735 N.am      1 SEC2        0.0000 
     35 N         -18.6320   10.0380    1.7100 N.am      5 SEL2        0.0000 
     36 N         -17.8780   11.8000    3.8370 N.am      3 SEP2        0.0000 
     37 N         -17.9115   11.4000    1.7910 N.am      1 SEC2        0.0000 
     38 N         -17.1910   12.7620    1.8720 N.am      3 SEP2        0.0000 
     39 CA        -19.5970   -2.0865    7.8375 C.3       2 GLC5        0.0000 
     40 CA        -18.6070   -0.7860    6.4790 C.3       6 GLL5        0.0000 
     41 CA        -20.5870   -3.3870    9.1960 C.3       4 GLP5        0.0000 
     42 CA        -19.0365    0.4165   -0.3355 C.3       2 GLC5        0.0000 
     43 CA        -18.9610    2.1960    0.9820 C.3       6 GLL5        0.0000 
     44 CA        -19.1120   -1.3630   -1.6530 C.3       4 GLP5        0.0000 
     45 CA        -20.1760   -0.1160    0.7105 C.3       2 GLC5        0.0000 
     46 CA        -18.9600    1.2350    2.0060 C.3       6 GLL5        0.0000 
     47 CA        -21.3920   -1.4670   -0.5850 C.3       4 GLP5        0.0000 
     48 CA        -19.1400   -3.4570    4.3960 C.3       2 GLC5        0.0000 
     49 CA        -19.1840   -1.4420    5.3840 C.3       6 GLL5        0.0000 
     50 CA        -19.0960   -5.4720    3.4080 C.3       4 GLP5        0.0000 
     51 CA        -17.7465   -1.8440    7.4028 C.3       2 GLC5        0.0000 
     52 CA        -16.5270   -3.2790    7.8620 C.3       4 GLP5        0.0000 
     53 CA        -21.2112   -2.6713    4.4670 C.3       2 GLC5        0.0000 
     54 CA        -22.4960   -3.7630    3.4200 C.3       4 GLP5        0.0000 
     55 CA        -17.6623   -2.6843    6.5747 C.3       2 GLC5        0.0000 
     56 CA        -20.1827    3.1282    3.5040 C.3       2 GLC5        0.0000 
     57 CA        -18.7250    3.9010    2.6560 C.3       6 GLL5        0.0000 
     58 CA        -21.6430    2.8170    3.8460 C.3       4 GLP5        0.0000 
     59 CA        -20.2733    2.8462    2.4968 C.3       2 GLC5        0.0000 
     60 CA        -18.8460    3.5550    1.3130 C.3       6 GLL5        0.0000 
     61 CA        -20.2027    3.6133   -0.1352 C.3       2 GLC5        0.0000 
     62 CA        -21.5020    4.3510   -1.4180 C.3       4 GLP5        0.0000 
     63 CA        -20.3062    1.4647    4.0485 C.3       2 GLC5        0.0000 
     64 CA        -18.8570    0.7780    4.3740 C.3       6 GLL5        0.0000 
     65 CA        -16.9218   -0.3107    3.9360 C.3       2 GLC5        0.0000 
     66 CA        -14.8740   -0.7340    3.6210 C.3       4 GLP5        0.0000 
     67 CA        -20.3245    4.1850    2.9775 C.3       2 GLC5        0.0000 
     68 CA        -18.6430    5.3690    2.7370 C.3       6 GLL5        0.0000 
     69 CA        -20.2645    2.1305    3.2565 C.3       2 GLC5        0.0000 
     70 CA        -18.8120    1.6530    3.3280 C.3       6 GLL5        0.0000 
     71 CA        -20.3975    6.1493   -0.0070 C.3       2 GLC5        0.0000 
     72 CA        -19.3690    5.7370    1.4810 C.3       6 GLL5        0.0000 
     73 CA        -21.7020    5.8520   -1.5480 C.3       4 GLP5        0.0000 
     74 CA        -17.1978    6.4712    2.7743 C.3       2 GLC5        0.0000 
     75 CA        -15.8320    6.5370    3.6560 C.3       4 GLP5        0.0000 
@<TRIPOS>BOND
@<TRIPOS>SUBSTRUCTURE
     1 SEC2       34 GROUP        1 X    SEC  0     ROOT SEC X 2
     2 GLC5        1 GROUP        1 X    GLC  0     **** GLC X 6
     3 SEP2       36 GROUP        1 Y    SEP  0     ROOT SEP Y 9
     4 GLP5        3 GROUP        1 Y    GLP  0     **** GLP Y 13
     5 SEL2       35 GROUP        1 Z    SEL  0     ROOT SEL Z 16
     6 GLL5        2 GROUP        1 Z    GLL  0     **** GLL Z 20
@<TRIPOS>SET

