#    Name: 3pcu_LX8_1_ligand
#    Modification time : Tue Mar 25 06:16:41 2014

@<TRIPOS>MOLECULE
3pcu_LX8_1_ligand
   48    50     1     0     0
SMALL
NO_CHARGES


@<TRIPOS>ATOM
      1 CAA       -19.3250   -0.0320    7.4080 C.2       1 LX81        0.0000 
      2 CAB       -20.9670    9.7580    2.1320 C.3       1 LX81        0.0000 
      3 CAC       -20.6690   -1.7170    5.6440 C.3       1 LX81        0.0000 
      4 CAD       -18.4110   -2.7370    5.1910 C.3       1 LX81        0.0000 
      5 CAE       -18.8480    7.4990    3.0840 C.3       1 LX81        0.0000 
      6 CAF       -17.4100    7.1880    1.0170 C.3       1 LX81        0.0000 
      7 OAG       -18.6320   10.0380    1.7100 O.2       1 LX81        0.0000 
      8 OAH       -19.3730   -2.1650    2.5310 O.2       1 LX81        0.0000 
      9 CAI       -18.6070   -0.7860    6.4790 C.2       1 LX81        0.0000 
     10 CAJ       -18.7200    2.9780    3.6680 C.ar      1 LX81        0.0000 
     11 CAK       -18.9610    2.1960    0.9820 C.ar      1 LX81        0.0000 
     12 CAL       -18.8570    0.7780    4.3740 C.2       1 LX81        0.0000 
     13 CAM       -18.6430    5.3690    2.7370 C.3       1 LX81        0.0000 
     14 OAN       -19.5860    8.1380    0.8820 O.3       1 LX81        0.0000 
     15 OAO       -18.8170    4.7240    0.5810 O.3       1 LX81        0.0000 
     16 OAP       -19.0840   -0.1010    1.7270 O.3       1 LX81        0.0000 
     17 CAQ       -19.6320    9.3280    1.5620 C.2       1 LX81        0.0000 
     18 CAR       -18.7250    3.9010    2.6560 C.ar      1 LX81        0.0000 
     19 CAS       -18.8460    3.5550    1.3130 C.ar      1 LX81        0.0000 
     20 CAT       -19.0820   -0.5530    4.1280 C.2       1 LX81        0.0000 
     21 CAU       -19.1910   -0.9770    2.7900 C.2       1 LX81        0.0000 
     22 CAV       -18.8120    1.6530    3.3280 C.ar      1 LX81        0.0000 
     23 CAW       -18.9600    1.2350    2.0060 C.ar      1 LX81        0.0000 
     24 CAX       -19.3690    5.7370    1.4810 C.3       1 LX81        0.0000 
     25 CAY       -19.1840   -1.4420    5.3840 C.3       1 LX81        0.0000 
     26 CAZ       -18.8170    7.1560    1.5870 C.3       1 LX81        0.0000 
     27 H         -17.5627   -0.8686    6.6076 H         1 LX81        0.0000 
     28 H         -18.6500    3.2668    4.6443 H         1 LX81        0.0000 
     29 H         -19.0445    1.9087    0.0074 H         1 LX81        0.0000 
     30 H         -18.7237    1.1103    5.3410 H         1 LX81        0.0000 
     31 H         -17.6403    5.6952    2.6828 H         1 LX81        0.0000 
     32 H         -19.1696    5.7313    3.5773 H         1 LX81        0.0000 
     33 H         -20.3538    5.6966    1.6928 H         1 LX81        0.0000 
     34 H         -20.9284    9.8690    3.1251 H         1 LX81        0.0000 
     35 H         -21.2695   10.6317    1.7509 H         1 LX81        0.0000 
     36 H         -21.6856    9.0898    1.9395 H         1 LX81        0.0000 
     37 H         -20.8056   -2.2754    6.4622 H         1 LX81        0.0000 
     38 H         -21.1857   -0.8712    5.7768 H         1 LX81        0.0000 
     39 H         -21.0954   -2.2044    4.8820 H         1 LX81        0.0000 
     40 H         -17.4404   -2.5681    5.0197 H         1 LX81        0.0000 
     41 H         -18.4682   -3.3272    5.9962 H         1 LX81        0.0000 
     42 H         -18.7580   -3.2646    4.4156 H         1 LX81        0.0000 
     43 H         -18.3011    6.8585    3.6232 H         1 LX81        0.0000 
     44 H         -18.4879    8.4146    3.2628 H         1 LX81        0.0000 
     45 H         -19.7775    7.4727    3.4519 H         1 LX81        0.0000 
     46 H         -16.9897    8.0900    1.1158 H         1 LX81        0.0000 
     47 H         -16.8089    6.5328    1.4746 H         1 LX81        0.0000 
     48 H         -17.3990    6.9647    0.0423 H         1 LX81        0.0000 
@<TRIPOS>BOND
     1    9    1 2    
     2   17    2 1    
     3   34    2 1    
     4   35    2 1    
     5   36    2 1    
     6   25    3 1    
     7   37    3 1    
     8   38    3 1    
     9   39    3 1    
    10   25    4 1    
    11   40    4 1    
    12   41    4 1    
    13   42    4 1    
    14   26    5 1    
    15   43    5 1    
    16   44    5 1    
    17   45    5 1    
    18   26    6 1    
    19   46    6 1    
    20   47    6 1    
    21   48    6 1    
    22   17    7 2    
    23   21    8 2    
    24   25    9 1    
    25   27    9 1    
    26   18   10 ar   
    27   22   10 ar   
    28   28   10 1    
    29   19   11 ar   
    30   23   11 ar   
    31   29   11 1    
    32   20   12 2    
    33   22   12 1    
    34   30   12 1    
    35   18   13 1    
    36   24   13 1    
    37   31   13 1    
    38   32   13 1    
    39   17   14 1    
    40   26   14 1    
    41   19   15 1    
    42   24   15 1    
    43   21   16 1    
    44   23   16 1    
    45   19   18 ar   
    46   21   20 1    
    47   25   20 1    
    48   23   22 ar   
    49   26   24 1    
    50   33   24 1    
@<TRIPOS>SUBSTRUCTURE
     1 LX81        1 GROUP   
@<TRIPOS>SET

