#    Name: 2gqf_FAD_1_INTS_M
#    Modification time : Tue Mar 25 14:57:03 2014

@<TRIPOS>MOLECULE
2gqf_FAD_1_INTS_M
  111     0     9     0     0
SMALL
NO_CHARGES


@<TRIPOS>ATOM
      1 N          58.7280   77.8725    5.1425 N.am      2 SEC2        0.0000 
      2 N          57.6330   76.6060    5.2480 N.am      8 SEL2        0.0000 
      3 N          59.8230   79.1390    5.0370 N.am      5 SEP2        0.0000 
      4 CA         53.5860   77.4850    3.8025 C.3       3 GLC5        0.0000 
      5 CA         54.3920   78.5350    5.5150 C.3       9 GLL5        0.0000 
      6 CA         52.7800   76.4350    2.0900 C.3       6 GLP5        0.0000 
      7 N          52.8790   77.4740   10.7070 N.am      2 SEC2        0.0000 
      8 N          52.0570   78.4490    9.7480 N.am      8 SEL2        0.0000 
      9 N          53.7010   76.4990   11.6660 N.am      5 SEP2        0.0000 
     10 N          52.8350   78.6060   10.8435 N.am      2 SEC2        0.0000 
     11 N          53.6130   78.7630   11.9390 N.am      5 SEP2        0.0000 
     12 O          50.9685   79.0260   10.0700 O.2       1 ALC1        0.0000 
     13 O          52.0570   78.4490    9.7480 O.2       7 ALL1        0.0000 
     14 O          49.8800   79.6030   10.3920 O.2       4 ALP1        0.0000 
     15 CA         52.4315   81.1695    6.8935 C.3       3 GLC5        0.0000 
     16 CA         51.7150   79.6330    7.6240 C.3       9 GLL5        0.0000 
     17 CA         53.1480   82.7060    6.1630 C.3       6 GLP5        0.0000 
     18 CA         51.4815   79.6780    5.4160 C.3       3 GLC5        0.0000 
     19 CA         51.2480   79.7230    3.2080 C.3       6 GLP5        0.0000 
     20 CA         47.3120   78.6010    6.9580 C.3       3 GLC5        0.0000 
     21 CA         48.2180   80.4760    7.2510 C.3       9 GLL5        0.0000 
     22 CA         46.4060   76.7260    6.6650 C.3       6 GLP5        0.0000 
     23 CA         45.9085   81.5605    9.1100 C.3       3 GLC5        0.0000 
     24 CA         47.1850   81.3920    7.5340 C.3       9 GLL5        0.0000 
     25 CA         44.6320   81.7290   10.6860 C.3       6 GLP5        0.0000 
     26 N          46.5270   83.6170    8.6990 N.am      2 SEC2        0.0000 
     27 N          47.5250   82.5640    8.1260 N.am      8 SEL2        0.0000 
     28 N          45.5290   84.6700    9.2720 N.am      5 SEP2        0.0000 
     29 CA         48.8030   83.5740    6.7615 C.3       3 GLC5        0.0000 
     30 CA         48.8180   82.7820    8.4250 C.3       9 GLL5        0.0000 
     31 CA         48.7880   84.3660    5.0980 C.3       6 GLP5        0.0000 
     32 CA         50.2840   83.2410    9.5715 C.3       3 GLC5        0.0000 
     33 CA         51.7500   83.7000   10.7180 C.3       6 GLP5        0.0000 
     34 CA         48.4930   81.6985   10.0635 C.3       3 GLC5        0.0000 
     35 CA         48.1680   80.6150   11.7020 C.3       6 GLP5        0.0000 
     36 CA         47.3700   83.2660    9.9485 C.3       3 GLC5        0.0000 
     37 CA         45.9220   83.7500   11.4720 C.3       6 GLP5        0.0000 
     38 CA         47.9630   84.5405    7.9650 C.3       3 GLC5        0.0000 
     39 CA         47.1080   86.2990    7.5050 C.3       6 GLP5        0.0000 
     40 N          49.9620   82.0740    9.8500 N.am      2 SEC2        0.0000 
     41 N          49.8730   81.9900    8.2240 N.am      8 SEL2        0.0000 
     42 N          50.0510   82.1580   11.4760 N.am      5 SEP2        0.0000 
     43 CA         51.3240   81.7730    6.8955 C.3       3 GLC5        0.0000 
     44 CA         49.5000   80.8400    7.6280 C.3       9 GLL5        0.0000 
     45 N          63.8050   72.3660    0.0175 N.am      2 SEC2        0.0000 
     46 N          64.2800   71.2090    0.6750 N.am      8 SEL2        0.0000 
     47 N          63.3300   73.5230   -0.6400 N.am      5 SEP2        0.0000 
     48 O          66.1185   70.5555    2.3805 O.2       1 ALC1        0.0000 
     49 O          64.7050   69.8890    2.4530 O.2       7 ALL1        0.0000 
     50 O          67.5320   71.2220    2.3080 O.2       4 ALP1        0.0000 
     51 N          65.4715   68.3520    5.6705 N.am      2 SEC2        0.0000 
     52 N          65.2690   68.5840    4.1840 N.am      8 SEL2        0.0000 
     53 N          65.6740   68.1200    7.1570 N.am      5 SEP2        0.0000 
     54 CA         56.0755   69.9860    6.7015 C.3       3 GLC5        0.0000 
     55 CA         57.1380   68.2720    6.6320 C.3       9 GLL5        0.0000 
     56 CA         55.0130   71.7000    6.7710 C.3       6 GLP5        0.0000 
     57 CA         55.8555   68.2930    7.6630 C.3       3 GLC5        0.0000 
     58 CA         54.5730   68.3140    8.6940 C.3       6 GLP5        0.0000 
     59 CA         57.1135   67.0170    5.0170 C.3       3 GLC5        0.0000 
     60 CA         57.0890   65.7620    3.4020 C.3       6 GLP5        0.0000 
     61 CA         59.7305   68.4090    3.0655 C.3       3 GLC5        0.0000 
     62 CA         59.8590   70.5760    2.8490 C.3       9 GLL5        0.0000 
     63 CA         59.6020   66.2420    3.2820 C.3       6 GLP5        0.0000 
     64 CA         58.7465   69.6865    1.4565 C.3       3 GLC5        0.0000 
     65 CA         57.6340   68.7970    0.0640 C.3       6 GLP5        0.0000 
     66 CA         60.4420   70.9560    0.8185 C.3       3 GLC5        0.0000 
     67 CA         61.0250   71.3360   -1.2120 C.3       6 GLP5        0.0000 
     68 CA         59.9835   72.1480    0.5350 C.3       3 GLC5        0.0000 
     69 CA         58.9420   72.9600    2.2820 C.3       9 GLL5        0.0000 
     70 O          57.3330   72.4985    1.1435 O.2       1 ALC1        0.0000 
     71 O          58.9790   72.5830    0.9120 O.2       7 ALL1        0.0000 
     72 O          55.6870   72.4140    1.3750 O.2       4 ALP1        0.0000 
     73 CA         60.2395   76.2535    2.9620 C.3       3 GLC5        0.0000 
     74 CA         59.1230   74.4780    2.4220 C.3       9 GLL5        0.0000 
     75 CA         61.3560   78.0290    3.5020 C.3       6 GLP5        0.0000 
     76 CA         60.7915   74.4920    3.2790 C.3       3 GLC5        0.0000 
     77 CA         62.4600   74.5060    4.1360 C.3       6 GLP5        0.0000 
     78 CA         56.5900   74.8640    0.5910 C.3       3 GLC5        0.0000 
     79 CA         58.0640   75.2760    1.7790 C.3       9 GLL5        0.0000 
     80 CA         55.1160   74.4520   -0.5970 C.3       6 GLP5        0.0000 
     81 N          58.5430   79.6230    2.5405 N.am      2 SEC2        0.0000 
     82 N          57.2640   78.9160    2.7470 N.am      8 SEL2        0.0000 
     83 N          59.8220   80.3300    2.3340 N.am      5 SEP2        0.0000 
     84 N          55.8855   77.0010   -0.2880 N.am      2 SEC2        0.0000 
     85 N          56.0310   77.4310    1.0420 N.am      8 SEL2        0.0000 
     86 N          55.7400   76.5710   -1.6180 N.am      5 SEP2        0.0000 
     87 CA         53.6120   80.7512    6.1558 C.3       3 GLC5        0.0000 
     88 CA         56.0705   79.3162    6.3518 C.3       3 GLC5        0.0000 
     89 CA         53.7600   79.0580    6.7820 C.3       9 GLL5        0.0000 
     90 CA         58.0650   79.8360    6.5550 C.3       6 GLP5        0.0000 
     91 CA         52.6620   79.2597    4.6783 C.3       3 GLC5        0.0000 
     92 CA         49.0750   80.9725    5.4147 C.3       3 GLC5        0.0000 
     93 CA         49.2910   81.2870    3.3900 C.3       6 GLP5        0.0000 
     94 CA         46.4043   80.4230    5.7588 C.3       3 GLC5        0.0000 
     95 CA         45.1070   79.9120    4.1250 C.3       6 GLP5        0.0000 
     96 CA         48.6944   82.6265    6.3041 C.3       3 GLC5        0.0000 
     97 CA         48.3844   80.7510    9.6061 C.3       3 GLC5        0.0000 
     98 CA         62.5025   68.7752    6.9575 C.3       3 GLC5        0.0000 
     99 CA         61.2890   68.3550    5.4650 C.3       9 GLL5        0.0000 
    100 CA         63.8970   69.5890    7.8770 C.3       6 GLP5        0.0000 
    101 CA         60.3550   67.1018    4.6600 C.3       3 GLC5        0.0000 
    102 CA         58.6260   68.2467    8.8148 C.3       3 GLC5        0.0000 
    103 CA         59.5420   67.5420    6.9880 C.3       9 GLL5        0.0000 
    104 CA         57.9280   69.3600   10.0540 C.3       6 GLP5        0.0000 
    105 CA         59.3293   67.0840    4.9398 C.3       3 GLC5        0.0000 
    106 CA         57.8912   68.8255    8.2368 C.3       3 GLC5        0.0000 
    107 CA         58.5710   68.3100    6.2070 C.3       9 GLL5        0.0000 
    108 CA         59.6097   67.6530    4.1058 C.3       3 GLC5        0.0000 
    109 CA         58.9760   69.0290    5.1400 C.3       9 GLL5        0.0000 
    110 CA         60.9343   73.5100    3.4127 C.3       3 GLC5        0.0000 
    111 CA         59.8750   72.0680    3.0970 C.3       9 GLL5        0.0000 
@<TRIPOS>BOND
@<TRIPOS>SUBSTRUCTURE
     1 ALC1       12 GROUP        1 X    ALC  0     ROOT ALC X 1
     2 SEC2        1 GROUP        1 X    SEC  0     **** SEC X 2
     3 GLC5        4 GROUP        1 X    GLC  0     **** GLC X 6
     4 ALP1       14 GROUP        1 Y    ALP  0     ROOT ALP Y 8
     5 SEP2        3 GROUP        1 Y    SEP  0     **** SEP Y 9
     6 GLP5        6 GROUP        1 Y    GLP  0     **** GLP Y 13
     7 ALL1       13 GROUP        1 Z    ALL  0     ROOT ALL Z 15
     8 SEL2        2 GROUP        1 Z    SEL  0     **** SEL Z 16
     9 GLL5        5 GROUP        1 Z    GLL  0     **** GLL Z 20
@<TRIPOS>SET

