#    Name: 2gqf_FAD_1_ligand
#    Modification time : Tue Mar 25 14:57:03 2014

@<TRIPOS>MOLECULE
2gqf_FAD_1_ligand
   84    89     1     0     0
SMALL
NO_CHARGES


@<TRIPOS>ATOM
      1 PA         56.1670   76.6510    5.0190 P.3       1 FAD403      0.0000 
      2 O1A        55.2960   75.5060    5.4000 O.co2     1 FAD403      0.0000 
      3 O2A        57.6330   76.6060    5.2480 O.co2     1 FAD403      0.0000 
      4 O5B        55.6520   77.9340    5.8110 O.3       1 FAD403      0.0000 
      5 C5B        54.3920   78.5350    5.5150 C.3       1 FAD403      0.0000 
      6 C4B        53.7600   79.0580    6.7820 C.3       1 FAD403      0.0000 
      7 O4B        52.4850   79.6410    6.4570 O.3       1 FAD403      0.0000 
      8 C3B        53.4170   77.9450    7.7640 C.3       1 FAD403      0.0000 
      9 O3B        54.3750   77.9890    8.8190 O.3       1 FAD403      0.0000 
     10 C2B        52.0520   78.3270    8.3450 C.3       1 FAD403      0.0000 
     11 O2B        52.0570   78.4490    9.7480 O.3       1 FAD403      0.0000 
     12 C1B        51.7150   79.6330    7.6240 C.3       1 FAD403      0.0000 
     13 N9A        50.3030   79.7790    7.2860 N.pl3     1 FAD403      0.0000 
     14 C8A        49.4770   78.8590    6.6930 C.2       1 FAD403      0.0000 
     15 N7A        48.2200   79.2240    6.6520 N.2       1 FAD403      0.0000 
     16 C5A        48.2180   80.4760    7.2510 C.ar      1 FAD403      0.0000 
     17 C6A        47.1850   81.3920    7.5340 C.ar      1 FAD403      0.0000 
     18 N6A        45.8960   81.1600    7.2600 N.pl3     1 FAD403      0.0000 
     19 N1A        47.5250   82.5640    8.1260 N.ar      1 FAD403      0.0000 
     20 C2A        48.8180   82.7820    8.4250 C.ar      1 FAD403      0.0000 
     21 N3A        49.8730   81.9900    8.2240 N.ar      1 FAD403      0.0000 
     22 C4A        49.5000   80.8400    7.6280 C.ar      1 FAD403      0.0000 
     23 N1         62.6260   70.5610    2.0680 N.2       1 FAD403      0.0000 
     24 C2         63.8940   70.5980    1.6690 C.2       1 FAD403      0.0000 
     25 O2         64.2800   71.2090    0.6750 O.2       1 FAD403      0.0000 
     26 N3         64.7050   69.8890    2.4530 N.am      1 FAD403      0.0000 
     27 C4         64.4080   69.1750    3.5400 C.2       1 FAD403      0.0000 
     28 O4         65.2690   68.5840    4.1840 O.2       1 FAD403      0.0000 
     29 C4X        63.0860   69.1330    3.9430 C.2       1 FAD403      0.0000 
     30 N5         62.6300   68.4110    5.0500 N.2       1 FAD403      0.0000 
     31 C5X        61.2890   68.3550    5.4650 C.ar      1 FAD403      0.0000 
     32 C6         60.9270   67.5680    6.6110 C.ar      1 FAD403      0.0000 
     33 C7         59.5420   67.5420    6.9880 C.ar      1 FAD403      0.0000 
     34 C7M        59.1060   66.7250    8.1630 C.3       1 FAD403      0.0000 
     35 C8         58.5710   68.3100    6.2070 C.ar      1 FAD403      0.0000 
     36 C8M        57.1380   68.2720    6.6320 C.3       1 FAD403      0.0000 
     37 C9         58.9760   69.0290    5.1400 C.ar      1 FAD403      0.0000 
     38 C9A        60.2590   69.0990    4.7190 C.ar      1 FAD403      0.0000 
     39 N10        60.8230   69.7860    3.6300 N.pl3     1 FAD403      0.0000 
     40 C10        62.1380   69.8730    3.1650 C.2       1 FAD403      0.0000 
     41 C1'        59.8590   70.5760    2.8490 C.3       1 FAD403      0.0000 
     42 C2'        59.8750   72.0680    3.0970 C.3       1 FAD403      0.0000 
     43 O2'        59.6400   72.2720    4.4820 O.3       1 FAD403      0.0000 
     44 C3'        58.9420   72.9600    2.2820 C.3       1 FAD403      0.0000 
     45 O3'        58.9790   72.5830    0.9120 O.3       1 FAD403      0.0000 
     46 C4'        59.1230   74.4780    2.4220 C.3       1 FAD403      0.0000 
     47 O4'        59.1240   74.8410    3.7960 O.3       1 FAD403      0.0000 
     48 C5'        58.0640   75.2760    1.7790 C.3       1 FAD403      0.0000 
     49 O5'        58.1790   76.6580    2.1150 O.3       1 FAD403      0.0000 
     50 P          56.8790   77.5700    2.2550 P.3       1 FAD403      0.0000 
     51 O1P        57.2640   78.9160    2.7470 O.co2     1 FAD403      0.0000 
     52 O2P        56.0310   77.4310    1.0420 O.co2     1 FAD403      0.0000 
     53 O3P        55.9620   76.9420    3.4370 O.3       1 FAD403      0.0000 
     54 H          53.6993   77.8138    5.0591 H         1 FAD403      0.0000 
     55 H          54.5013   79.3749    4.8147 H         1 FAD403      0.0000 
     56 H          54.3877   79.7610    7.2573 H         1 FAD403      0.0000 
     57 H          53.3548   77.0403    7.2738 H         1 FAD403      0.0000 
     58 H          51.3454   77.5836    7.9814 H         1 FAD403      0.0000 
     59 H          52.0288   80.4469    8.2799 H         1 FAD403      0.0000 
     60 H          49.8351   77.9923    6.3324 H         1 FAD403      0.0000 
     61 H          45.6912   80.2902    6.8111 H         1 FAD403      0.0000 
     62 H          45.2530   81.8772    7.5287 H         1 FAD403      0.0000 
     63 H          49.0336   83.7568    8.9054 H         1 FAD403      0.0000 
     64 H          65.7751   69.8925    2.1623 H         1 FAD403      0.0000 
     65 H          61.6116   67.0595    7.1245 H         1 FAD403      0.0000 
     66 H          58.2390   69.5771    4.5932 H         1 FAD403      0.0000 
     67 H          58.8219   70.2030    3.0405 H         1 FAD403      0.0000 
     68 H          60.0265   70.4035    1.7565 H         1 FAD403      0.0000 
     69 H          60.9231   72.4179    2.8877 H         1 FAD403      0.0000 
     70 H          57.8951   72.7402    2.6591 H         1 FAD403      0.0000 
     71 H          60.0843   74.7427    1.9772 H         1 FAD403      0.0000 
     72 H          57.0772   74.8776    2.0887 H         1 FAD403      0.0000 
     73 H          58.1237   75.1326    0.6816 H         1 FAD403      0.0000 
     74 H          59.3189   65.7556    8.0408 H         1 FAD403      0.0000 
     75 H          59.5543   67.0195    9.0070 H         1 FAD403      0.0000 
     76 H          58.1200   66.7915    8.3162 H         1 FAD403      0.0000 
     77 H          57.0172   68.6186    7.5622 H         1 FAD403      0.0000 
     78 H          56.5587   68.8268    6.0349 H         1 FAD403      0.0000 
     79 H          56.7703   67.3422    6.6156 H         1 FAD403      0.0000 
     80 H          53.8359   78.1041    9.6534 H         1 FAD403      0.0000 
     81 H          51.5656   79.2996    9.9355 H         1 FAD403      0.0000 
     82 H          59.3537   73.2271    4.5579 H         1 FAD403      0.0000 
     83 H          58.0262   72.4033    0.6673 H         1 FAD403      0.0000 
     84 H          58.3931   75.5177    3.8853 H         1 FAD403      0.0000 
@<TRIPOS>BOND
     1    2    1 ar   
     2    3    1 ar   
     3    4    1 1    
     4   53    1 1    
     5    5    4 1    
     6    6    5 1    
     7   54    5 1    
     8   55    5 1    
     9    7    6 1    
    10    8    6 1    
    11   56    6 1    
    12   12    7 1    
    13    9    8 1    
    14   10    8 1    
    15   57    8 1    
    16   80    9 1    
    17   11   10 1    
    18   12   10 1    
    19   58   10 1    
    20   81   11 1    
    21   13   12 1    
    22   59   12 1    
    23   14   13 1    
    24   22   13 1    
    25   15   14 2    
    26   60   14 1    
    27   16   15 1    
    28   17   16 ar   
    29   22   16 ar   
    30   18   17 1    
    31   19   17 ar   
    32   61   18 1    
    33   62   18 1    
    34   20   19 ar   
    35   21   20 ar   
    36   63   20 1    
    37   22   21 ar   
    38   24   23 1    
    39   40   23 2    
    40   25   24 2    
    41   26   24 am   
    42   27   26 am   
    43   64   26 1    
    44   28   27 2    
    45   29   27 1    
    46   30   29 2    
    47   40   29 1    
    48   31   30 1    
    49   32   31 ar   
    50   38   31 ar   
    51   33   32 ar   
    52   65   32 1    
    53   34   33 1    
    54   35   33 ar   
    55   74   34 1    
    56   75   34 1    
    57   76   34 1    
    58   36   35 1    
    59   37   35 ar   
    60   77   36 1    
    61   78   36 1    
    62   79   36 1    
    63   38   37 ar   
    64   66   37 1    
    65   39   38 1    
    66   40   39 1    
    67   41   39 1    
    68   42   41 1    
    69   67   41 1    
    70   68   41 1    
    71   43   42 1    
    72   44   42 1    
    73   69   42 1    
    74   82   43 1    
    75   45   44 1    
    76   46   44 1    
    77   70   44 1    
    78   83   45 1    
    79   47   46 1    
    80   48   46 1    
    81   71   46 1    
    82   84   47 1    
    83   49   48 1    
    84   72   48 1    
    85   73   48 1    
    86   50   49 1    
    87   51   50 ar   
    88   52   50 ar   
    89   53   50 1    
@<TRIPOS>SUBSTRUCTURE
     1 FAD403      1 GROUP   
@<TRIPOS>SET

