#    Name: 3lmp_CEK_1_INTS_M
#    Modification time : Mon Mar 24 21:50:58 2014

@<TRIPOS>MOLECULE
3lmp_CEK_1_INTS_M
   81     0     3     0     0
SMALL
NO_CHARGES


@<TRIPOS>ATOM
      1 CA         15.0990   49.8065   67.6690 C.3       1 GLC5        0.0000 
      2 CA         15.2380   51.2990   66.9070 C.3       3 GLL5        0.0000 
      3 CA         14.9600   48.3140   68.4310 C.3       2 GLP5        0.0000 
      4 CA         16.4435   49.6615   66.0570 C.3       1 GLC5        0.0000 
      5 CA         15.5580   50.5930   64.4030 C.3       3 GLL5        0.0000 
      6 CA         17.3290   48.7300   67.7110 C.3       2 GLP5        0.0000 
      7 CA         13.6555   50.8130   64.1725 C.3       1 GLC5        0.0000 
      8 CA         11.7530   51.0330   63.9420 C.3       2 GLP5        0.0000 
      9 CA         14.7890   52.4195   62.0040 C.3       1 GLC5        0.0000 
     10 CA         15.2970   50.4520   62.0030 C.3       3 GLL5        0.0000 
     11 CA         14.2810   54.3870   62.0050 C.3       2 GLP5        0.0000 
     12 CA         10.8440   49.0175   60.8405 C.3       1 GLC5        0.0000 
     13 CA         12.1030   47.2470   60.8360 C.3       3 GLL5        0.0000 
     14 CA          9.5850   50.7880   60.8450 C.3       2 GLP5        0.0000 
     15 CA          9.6325   46.3495   64.0535 C.3       1 GLC5        0.0000 
     16 CA         11.3580   46.3380   62.9860 C.3       3 GLL5        0.0000 
     17 CA          7.9070   46.3610   65.1210 C.3       2 GLP5        0.0000 
     18 CA         16.6720   45.8040   64.2210 C.3       1 GLC5        0.0000 
     19 CA         15.8420   47.3840   63.4340 C.3       3 GLL5        0.0000 
     20 CA         17.5020   44.2240   65.0080 C.3       2 GLP5        0.0000 
     21 CA         15.0640   45.4170   62.9660 C.3       1 GLC5        0.0000 
     22 CA         14.2860   43.4500   62.4980 C.3       2 GLP5        0.0000 
     23 CA          8.5130   45.6865   63.3050 C.3       1 GLC5        0.0000 
     24 CA          9.1190   45.0120   61.4890 C.3       3 GLL5        0.0000 
     25 CA          8.5310   46.7795   61.3000 C.3       1 GLC5        0.0000 
     26 CA          7.9430   48.5470   61.1110 C.3       2 GLP5        0.0000 
     27 CA          9.4990   43.5005   59.9515 C.3       1 GLC5        0.0000 
     28 CA          9.8790   41.9890   58.4140 C.3       2 GLP5        0.0000 
     29 CA          9.4785   43.8590   62.9160 C.3       1 GLC5        0.0000 
     30 CA          9.8380   42.7060   64.3430 C.3       2 GLP5        0.0000 
     31 CA          7.8825   44.1750   62.3555 C.3       1 GLC5        0.0000 
     32 CA          6.6460   43.3380   63.2220 C.3       2 GLP5        0.0000 
     33 CA         10.0265   49.5030   59.1565 C.3       1 GLC5        0.0000 
     34 CA         10.4680   48.2180   57.4680 C.3       3 GLL5        0.0000 
     35 CA         11.9860   49.1550   57.1125 C.3       1 GLC5        0.0000 
     36 CA         13.5040   50.0920   56.7570 C.3       2 GLP5        0.0000 
     37 CA         10.1615   47.4085   55.7495 C.3       1 GLC5        0.0000 
     38 CA          9.8550   46.5990   54.0310 C.3       2 GLP5        0.0000 
     39 CA          4.4500   49.2270   56.4480 C.3       1 GLC5        0.0000 
     40 CA          6.2490   49.3350   57.2340 C.3       3 GLL5        0.0000 
     41 CA          2.6510   49.1190   55.6620 C.3       2 GLP5        0.0000 
     42 CA          4.7860   45.6425   56.1870 C.3       1 GLC5        0.0000 
     43 CA          5.8090   45.7110   57.8430 C.3       3 GLL5        0.0000 
     44 CA          3.7630   45.5740   54.5310 C.3       2 GLP5        0.0000 
     45 CA          8.5060   43.6385   58.1705 C.3       1 GLC5        0.0000 
     46 CA          7.1330   45.2880   57.9270 C.3       3 GLL5        0.0000 
     47 CA          7.0200   43.6880   59.4920 C.3       1 GLC5        0.0000 
     48 CA          6.9070   42.0880   61.0570 C.3       2 GLP5        0.0000 
     49 CA          9.0155   46.4000   55.9075 C.3       1 GLC5        0.0000 
     50 CA          8.1760   46.2010   57.7840 C.3       3 GLL5        0.0000 
     51 CA         14.1865   50.3285   60.0545 C.3       1 GLC5        0.0000 
     52 CA         14.7470   49.2040   62.0370 C.3       3 GLL5        0.0000 
     53 CA         13.3510   50.8290   58.0890 C.3       2 GLP5        0.0000 
     54 CA         13.3755   50.3261   63.1421 C.3       1 GLC5        0.0000 
     55 CA          9.6022   47.4817   61.7007 C.3       1 GLC5        0.0000 
     56 CA         12.5441   45.5414   60.5791 C.3       1 GLC5        0.0000 
     57 CA         11.1650   46.4950   61.5950 C.3       3 GLL5        0.0000 
     58 CA         13.1780   44.0690   59.7750 C.3       2 GLP5        0.0000 
     59 CA         13.2114   45.1291   62.8089 C.3       1 GLC5        0.0000 
     60 CA         11.7063   44.7715   64.1235 C.3       1 GLC5        0.0000 
     61 CA         12.4550   46.9100   63.6240 C.3       3 GLL5        0.0000 
     62 CA         11.5060   42.9190   64.9420 C.3       2 GLP5        0.0000 
     63 CA         12.3133   49.1771   63.4258 C.3       1 GLC5        0.0000 
     64 CA          7.9672   47.7428   55.6713 C.3       1 GLC5        0.0000 
     65 CA          7.9170   47.5620   57.5500 C.3       3 GLL5        0.0000 
     66 CA          7.5000   47.4400   53.8690 C.3       2 GLP5        0.0000 
     67 CA          4.8927   47.3110   56.0897 C.3       1 GLC5        0.0000 
     68 CA          6.5400   47.9910   57.4640 C.3       3 GLL5        0.0000 
     69 CA          3.7620   47.1010   54.6410 C.3       2 GLP5        0.0000 
     70 CA          7.7210   48.7535   55.4982 C.3       1 GLC5        0.0000 
     71 CA          7.2760   50.2650   57.0870 C.3       3 GLL5        0.0000 
     72 CA          7.9086   50.0757   58.9846 C.3       1 GLC5        0.0000 
     73 CA          8.6080   49.8690   57.1680 C.3       3 GLL5        0.0000 
     74 CA          8.1320   50.3170   60.8050 C.3       2 GLP5        0.0000 
     75 CA          6.7254   47.6485   55.6750 C.3       1 GLC5        0.0000 
     76 CA          5.1310   46.5145   59.6045 C.3       1 GLC5        0.0000 
     77 CA          5.5070   47.0510   57.6130 C.3       3 GLL5        0.0000 
     78 CA          4.6040   46.6480   61.4810 C.3       2 GLP5        0.0000 
     79 CA          7.8873   47.8283   59.3687 C.3       1 GLC5        0.0000 
     80 CA          7.0933   44.5671   56.3307 C.3       1 GLC5        0.0000 
     81 CA          6.8630   43.2840   54.8270 C.3       2 GLP5        0.0000 
@<TRIPOS>BOND
@<TRIPOS>SUBSTRUCTURE
     1 GLC5        1 GROUP        1 X    GLC  0     ROOT GLC X 6
     2 GLP5        3 GROUP        1 Y    GLP  0     ROOT GLP Y 13
     3 GLL5        2 GROUP        1 Z    GLL  0     ROOT GLL Z 20
@<TRIPOS>SET

