#    Name: 3lmp_CEK_1_ligand
#    Modification time : Mon Mar 24 21:50:58 2014

@<TRIPOS>MOLECULE
3lmp_CEK_1_ligand
   58    62     1     0     0
SMALL
NO_CHARGES


@<TRIPOS>ATOM
      1 C1         15.2380   51.2990   66.9070 C.3       1 CEK23       0.0000 
      2 C2         16.1160   51.2530   65.6560 C.2       1 CEK23       0.0000 
      3 O3         17.2390   51.7540   65.6560 O.2       1 CEK23       0.0000 
      4 C4         15.5580   50.5930   64.4030 C.2       1 CEK23       0.0000 
      5 C5         14.6580   49.3320   64.5750 C.2       1 CEK23       0.0000 
      6 C6         14.6510   48.3690   63.3260 C.3       1 CEK23       0.0000 
      7 C7         14.7470   49.2040   62.0370 C.2       1 CEK23       0.0000 
      8 C8         15.2970   50.4520   62.0030 C.2       1 CEK23       0.0000 
      9 C9         15.8010   51.0400   63.1300 C.2       1 CEK23       0.0000 
     10 O10        14.2220   48.5820   60.9340 O.3       1 CEK23       0.0000 
     11 C11        13.2080   47.8180   61.5070 C.ar      1 CEK23       0.0000 
     12 C12        13.3760   47.6470   62.8830 C.ar      1 CEK23       0.0000 
     13 C13        12.1030   47.2470   60.8360 C.ar      1 CEK23       0.0000 
     14 C14        11.1650   46.4950   61.5950 C.ar      1 CEK23       0.0000 
     15 C15        11.3580   46.3380   62.9860 C.ar      1 CEK23       0.0000 
     16 C16        12.4550   46.9100   63.6240 C.ar      1 CEK23       0.0000 
     17 C17        15.8420   47.3840   63.4340 C.3       1 CEK23       0.0000 
     18 O18        14.0110   49.0930   65.5930 O.2       1 CEK23       0.0000 
     19 O19        16.5890   52.1440   62.9430 O.co2     1 CEK23       0.0000 
     20 O20        12.6070   46.7340   64.9740 O.3       1 CEK23       0.0000 
     21 O21        10.0770   45.9370   60.9140 O.3       1 CEK23       0.0000 
     22 C22         9.1190   45.0120   61.4890 C.3       1 CEK23       0.0000 
     23 C23        11.9920   47.4800   59.3280 C.2       1 CEK23       0.0000 
     24 O24        12.9970   47.7110   58.6580 O.2       1 CEK23       0.0000 
     25 N25        10.8290   47.4120   58.6520 N.am      1 CEK23       0.0000 
     26 C26        10.4680   48.2180   57.4680 C.3       1 CEK23       0.0000 
     27 C27         8.9520   48.5290   57.3970 C.ar      1 CEK23       0.0000 
     28 C28         7.9170   47.5620   57.5500 C.ar      1 CEK23       0.0000 
     29 C29         6.5400   47.9910   57.4640 C.ar      1 CEK23       0.0000 
     30 C30         6.2490   49.3350   57.2340 C.ar      1 CEK23       0.0000 
     31 C31         7.2760   50.2650   57.0870 C.ar      1 CEK23       0.0000 
     32 C32         8.6080   49.8690   57.1680 C.ar      1 CEK23       0.0000 
     33 C33         5.5070   47.0510   57.6130 C.ar      1 CEK23       0.0000 
     34 C34         5.8090   45.7110   57.8430 C.ar      1 CEK23       0.0000 
     35 C35         7.1330   45.2880   57.9270 C.ar      1 CEK23       0.0000 
     36 C36         8.1760   46.2010   57.7840 C.ar      1 CEK23       0.0000 
     37 H          15.3347   50.9717   61.0956 H         1 CEK23       0.0000 
     38 H          10.6724   45.7911   63.5272 H         1 CEK23       0.0000 
     39 H          10.0694   46.7319   58.9592 H         1 CEK23       0.0000 
     40 H          10.7461   47.6923   56.5423 H         1 CEK23       0.0000 
     41 H          11.0071   49.1772   57.4735 H         1 CEK23       0.0000 
     42 H           5.2673   49.6423   57.1724 H         1 CEK23       0.0000 
     43 H           7.0465   51.2565   56.9165 H         1 CEK23       0.0000 
     44 H           9.3590   50.5707   57.0582 H         1 CEK23       0.0000 
     45 H           4.5293   47.3575   57.5514 H         1 CEK23       0.0000 
     46 H           5.0453   45.0262   57.9520 H         1 CEK23       0.0000 
     47 H           7.3434   44.2935   58.0960 H         1 CEK23       0.0000 
     48 H           9.1538   45.8780   57.8501 H         1 CEK23       0.0000 
     49 H          15.6725   50.8413   67.6827 H         1 CEK23       0.0000 
     50 H          15.0454   52.2382   67.1912 H         1 CEK23       0.0000 
     51 H          14.3563   50.8510   66.7586 H         1 CEK23       0.0000 
     52 H          16.7195   47.8632   63.4554 H         1 CEK23       0.0000 
     53 H          15.7908   46.8290   64.2643 H         1 CEK23       0.0000 
     54 H          15.8722   46.7515   62.6600 H         1 CEK23       0.0000 
     55 H           9.5595   44.1747   61.8129 H         1 CEK23       0.0000 
     56 H           8.6394   45.4119   62.2701 H         1 CEK23       0.0000 
     57 H           8.4222   44.7389   60.8257 H         1 CEK23       0.0000 
     58 H          13.1306   47.5287   65.2811 H         1 CEK23       0.0000 
@<TRIPOS>BOND
     1    2    1 1    
     2   49    1 1    
     3   50    1 1    
     4   51    1 1    
     5    3    2 2    
     6    4    2 1    
     7    5    4 1    
     8    9    4 2    
     9    6    5 1    
    10   18    5 2    
    11    7    6 1    
    12   12    6 1    
    13   17    6 1    
    14    8    7 2    
    15   10    7 1    
    16    9    8 1    
    17   37    8 1    
    18   19    9 ar   
    19   11   10 1    
    20   12   11 ar   
    21   13   11 ar   
    22   16   12 ar   
    23   14   13 ar   
    24   23   13 1    
    25   15   14 ar   
    26   21   14 1    
    27   16   15 ar   
    28   38   15 1    
    29   20   16 1    
    30   52   17 1    
    31   53   17 1    
    32   54   17 1    
    33   58   20 1    
    34   22   21 1    
    35   55   22 1    
    36   56   22 1    
    37   57   22 1    
    38   24   23 2    
    39   25   23 am   
    40   26   25 1    
    41   39   25 1    
    42   27   26 1    
    43   40   26 1    
    44   41   26 1    
    45   28   27 ar   
    46   32   27 ar   
    47   29   28 ar   
    48   36   28 ar   
    49   30   29 ar   
    50   33   29 ar   
    51   31   30 ar   
    52   42   30 1    
    53   32   31 ar   
    54   43   31 1    
    55   44   32 1    
    56   34   33 ar   
    57   45   33 1    
    58   35   34 ar   
    59   46   34 1    
    60   36   35 ar   
    61   47   35 1    
    62   48   36 1    
@<TRIPOS>SUBSTRUCTURE
     1 CEK23       1 GROUP   
@<TRIPOS>SET

