#    Name: 1wtg_3BP_1_INTS_M
#    Modification time : Tue Mar 25 09:18:07 2014

@<TRIPOS>MOLECULE
1wtg_3BP_1_INTS_M
   86     0     9     0     0
SMALL
NO_CHARGES


@<TRIPOS>ATOM
      1 N          34.4840    7.6530   12.5630 N.am      2 SEC2        0.0000 
      2 N          34.8940    7.2350   11.0940 N.am      8 SEL2        0.0000 
      3 N          34.0740    8.0710   14.0320 N.am      5 SEP2        0.0000 
      4 CA         34.6160    9.2045   10.3075 C.3       3 GLC5        0.0000 
      5 CA         34.7430    8.2670    8.5040 C.3       9 GLL5        0.0000 
      6 CA         34.4890   10.1420   12.1110 C.3       6 GLP5        0.0000 
      7 CA         33.1630    9.4170    6.2890 C.3       3 GLC5        0.0000 
      8 CA         34.8870    8.5250    7.0170 C.3       9 GLL5        0.0000 
      9 CA         31.4390   10.3090    5.5610 C.3       6 GLP5        0.0000 
     10 O          32.0930    9.5295    9.8680 O.2       1 ALC1        0.0000 
     11 O          32.4510    8.2970    9.2420 O.2       7 ALL1        0.0000 
     12 O          31.7350   10.7620   10.4940 O.2       4 ALP1        0.0000 
     13 CA         31.0555    5.1930   10.4920 C.3       3 GLC5        0.0000 
     14 CA         31.7910    6.5070   11.6580 C.3       9 GLL5        0.0000 
     15 CA         30.3200    3.8790    9.3260 C.3       6 GLP5        0.0000 
     16 CA         30.4395    4.4030   13.2710 C.3       3 GLC5        0.0000 
     17 CA         31.5360    6.2620   13.0220 C.3       9 GLL5        0.0000 
     18 CA         29.3430    2.5440   13.5200 C.3       6 GLP5        0.0000 
     19 O          30.3135    5.4220   17.0335 O.2       1 ALC1        0.0000 
     20 O          30.8220    5.7580   15.7920 O.2       7 ALL1        0.0000 
     21 O          29.8050    5.0860   18.2750 O.2       4 ALP1        0.0000 
     22 O          31.6320    4.5975   15.4855 O.2       1 ALC1        0.0000 
     23 O          32.4420    3.4370   15.1790 O.2       4 ALP1        0.0000 
     24 O          35.7885   10.9570    3.4510 O.2       1 ALC1        0.0000 
     25 O          36.0580   10.8540    4.8820 O.2       7 ALL1        0.0000 
     26 O          35.5190   11.0600    2.0200 O.2       4 ALP1        0.0000 
     27 O          36.6360   11.7720    5.8860 O.2       1 ALC1        0.0000 
     28 O          37.2140   12.6900    6.8900 O.2       4 ALP1        0.0000 
     29 CA         39.5605    8.3195   11.8770 C.3       3 GLC5        0.0000 
     30 CA         38.0010    7.0940   11.3860 C.3       9 GLL5        0.0000 
     31 CA         41.1200    9.5450   12.3680 C.3       6 GLP5        0.0000 
     32 CA         37.4855    8.3105   12.8130 C.3       3 GLC5        0.0000 
     33 CA         36.9700    9.5270   14.2400 C.3       6 GLP5        0.0000 
     34 O          35.6935    5.3115   12.6965 O.2       1 ALC1        0.0000 
     35 O          36.5400    5.0990   11.5910 O.2       7 ALL1        0.0000 
     36 O          34.8470    5.5240   13.8020 O.2       4 ALP1        0.0000 
     37 N          34.5800    2.7890    8.9760 N.am      2 SEC2        0.0000 
     38 N          35.7390    3.7160    9.6870 N.am      8 SEL2        0.0000 
     39 N          33.4210    1.8620    8.2650 N.am      5 SEP2        0.0000 
     40 N          35.2775    2.6820   13.2955 N.am      2 SEC2        0.0000 
     41 N          35.7030    2.8060   11.9870 N.am      8 SEL2        0.0000 
     42 N          34.8520    2.5580   14.6040 N.am      5 SEP2        0.0000 
     43 CA         38.3750    2.5725   14.2890 C.3       3 GLC5        0.0000 
     44 CA         38.5800    2.5600   12.0900 C.3       9 GLL5        0.0000 
     45 CA         38.1700    2.5850   16.4880 C.3       6 GLP5        0.0000 
     46 O          28.9875    7.2110   17.1425 O.2       1 ALC1        0.0000 
     47 O          29.4980    7.5940   15.8220 O.2       7 ALL1        0.0000 
     48 O          28.4770    6.8280   18.4630 O.2       4 ALP1        0.0000 
     49 CA         37.8115    5.0865   14.4690 C.3       3 GLC5        0.0000 
     50 CA         39.2760    6.0170   13.2960 C.3       9 GLL5        0.0000 
     51 CA         36.3470    4.1560   15.6420 C.3       6 GLP5        0.0000 
     52 CA         38.9185    4.6020   15.2290 C.3       3 GLC5        0.0000 
     53 CA         40.3770    5.2820   13.7960 C.3       9 GLL5        0.0000 
     54 CA         37.4600    3.9220   16.6620 C.3       6 GLP5        0.0000 
     55 CA         46.2850    3.4000   16.1560 C.3       3 GLC5        0.0000 
     56 CA         44.7530    2.6470   14.7600 C.3       9 GLL5        0.0000 
     57 CA         47.8170    4.1530   17.5520 C.3       6 GLP5        0.0000 
     58 CA         32.3783    8.0847   12.4990 C.3       3 GLC5        0.0000 
     59 CA         33.0930    9.7850   12.6580 C.3       6 GLP5        0.0000 
     60 CA         28.5343    6.1000   13.2078 C.3       3 GLC5        0.0000 
     61 CA         30.4890    6.9410   13.6950 C.3       9 GLL5        0.0000 
     62 CA         26.9960    4.8330   13.0870 C.3       6 GLP5        0.0000 
     63 CA         31.5828    8.5760   12.9932 C.3       3 GLC5        0.0000 
     64 CA         29.6560    7.7930   12.9620 C.3       9 GLL5        0.0000 
     65 CA         32.7006    7.0004   14.1367 C.3       3 GLC5        0.0000 
     66 CA         34.3250    7.3380   15.2560 C.3       6 GLP5        0.0000 
     67 CA         28.2890    9.0505   12.4492 C.3       3 GLC5        0.0000 
     68 CA         26.8040   10.1960   12.6150 C.3       6 GLP5        0.0000 
     69 CA         29.3506    6.5378   10.2036 C.3       3 GLC5        0.0000 
     70 CA         29.8920    8.0170   11.6050 C.3       9 GLL5        0.0000 
     71 CA         28.2180    5.3060    9.4940 C.3       6 GLP5        0.0000 
     72 CA         31.7881    8.7773   11.7856 C.3       3 GLC5        0.0000 
     73 CA         30.9620    7.3840   10.9480 C.3       9 GLL5        0.0000 
     74 CA         40.7223    7.3670   12.4347 C.3       3 GLC5        0.0000 
     75 CA         39.1800    6.3580   11.9300 C.3       9 GLL5        0.0000 
     76 CA         41.7270    8.5730   13.3540 C.3       6 GLP5        0.0000 
     77 CA         40.7767    7.1113   13.4500 C.3       3 GLC5        0.0000 
     78 CA         41.9848    5.9778   14.6158 C.3       3 GLC5        0.0000 
     79 CA         43.0650    6.8870   15.8510 C.3       6 GLP5        0.0000 
     80 CA         41.5590    6.8090   12.8223 C.3       3 GLC5        0.0000 
     81 CA         41.4320    4.8550   12.9650 C.3       9 GLL5        0.0000 
     82 CA         44.2353    5.7208   14.1440 C.3       3 GLC5        0.0000 
     83 CA         43.8860    4.2960   13.1440 C.3       9 GLL5        0.0000 
     84 CA         44.0430    7.4840   14.8340 C.3       6 GLP5        0.0000 
     85 CA         42.7555    5.2107   14.9130 C.3       3 GLC5        0.0000 
     86 CA         42.5510    4.0440   13.4990 C.3       9 GLL5        0.0000 
@<TRIPOS>BOND
@<TRIPOS>SUBSTRUCTURE
     1 ALC1       10 GROUP        1 X    ALC  0     ROOT ALC X 1
     2 SEC2        1 GROUP        1 X    SEC  0     **** SEC X 2
     3 GLC5        4 GROUP        1 X    GLC  0     **** GLC X 6
     4 ALP1       12 GROUP        1 Y    ALP  0     ROOT ALP Y 8
     5 SEP2        3 GROUP        1 Y    SEP  0     **** SEP Y 9
     6 GLP5        6 GROUP        1 Y    GLP  0     **** GLP Y 13
     7 ALL1       11 GROUP        1 Z    ALL  0     ROOT ALL Z 15
     8 SEL2        2 GROUP        1 Z    SEL  0     **** SEL Z 16
     9 GLL5        5 GROUP        1 Z    GLL  0     **** GLL Z 20
@<TRIPOS>SET

