#    Name: 1wtg_3BP_1_ligand
#    Modification time : Tue Mar 25 09:18:07 2014

@<TRIPOS>MOLECULE
1wtg_3BP_1_ligand
   79    81     1     0     0
SMALL
NO_CHARGES


@<TRIPOS>ATOM
      1 C15        35.7990    7.0160   10.2910 C.2       1 3BP2001     0.0000 
      2 O1         34.8940    7.2350   11.0940 O.2       1 3BP2001     0.0000 
      3 N17        35.8450    7.4860    9.0220 N.am      1 3BP2001     0.0000 
      4 C18        34.7430    8.2670    8.5040 C.3       1 3BP2001     0.0000 
      5 C19        34.8870    8.5250    7.0170 C.3       1 3BP2001     0.0000 
      6 C20        36.1800    9.2600    6.6340 C.3       1 3BP2001     0.0000 
      7 C28        33.4260    7.5020    8.7810 C.2       1 3BP2001     0.0000 
      8 O30        33.3140    6.2890    8.6010 O.2       1 3BP2001     0.0000 
      9 N31        32.4510    8.2970    9.2420 N.am      1 3BP2001     0.0000 
     10 C32        31.1870    7.6600    9.4950 C.3       1 3BP2001     0.0000 
     11 C16        31.7910    6.5070   11.6580 C.ar      1 3BP2001     0.0000 
     12 C17        31.5360    6.2620   13.0220 C.ar      1 3BP2001     0.0000 
     13 C22        30.4890    6.9410   13.6950 C.ar      1 3BP2001     0.0000 
     14 C23        29.6560    7.7930   12.9620 C.ar      1 3BP2001     0.0000 
     15 C24        29.8920    8.0170   11.6050 C.ar      1 3BP2001     0.0000 
     16 C25        30.9620    7.3840   10.9480 C.ar      1 3BP2001     0.0000 
     17 C26        30.2710    6.7680   15.1330 C.ar      1 3BP2001     0.0000 
     18 N1         30.8220    5.7580   15.7920 N.pl3     1 3BP2001     0.0000 
     19 C2         36.0630    9.5590    5.1570 C.2       1 3BP2001     0.0000 
     20 O2         35.8960    8.6690    4.3290 O.2       1 3BP2001     0.0000 
     21 N3         36.0580   10.8540    4.8820 N.am      1 3BP2001     0.0000 
     22 C1         38.0010    7.0940   11.3860 C.3       1 3BP2001     0.0000 
     23 N4         36.5400    5.0990   11.5910 N.pl3     1 3BP2001     0.0000 
     24 C5         37.0110    6.1530   10.7090 C.3       1 3BP2001     0.0000 
     25 S1         36.3720    3.5130   10.9500 S.o2      1 3BP2001     0.0000 
     26 O4         35.7390    3.7160    9.6870 O.2       1 3BP2001     0.0000 
     27 O3         35.7030    2.8060   11.9870 O.2       1 3BP2001     0.0000 
     28 C9         37.9810    2.8520   10.7010 C.3       1 3BP2001     0.0000 
     29 C8         38.5800    2.5600   12.0900 C.3       1 3BP2001     0.0000 
     30 N2         29.4980    7.5940   15.8220 N.pl3     1 3BP2001     0.0000 
     31 C11        40.2550    5.9640   11.1010 C.ar      1 3BP2001     0.0000 
     32 C7         39.1800    6.3580   11.9300 C.ar      1 3BP2001     0.0000 
     33 C3         39.2760    6.0170   13.2960 C.ar      1 3BP2001     0.0000 
     34 C4         40.3770    5.2820   13.7960 C.ar      1 3BP2001     0.0000 
     35 C13        41.4320    4.8550   12.9650 C.ar      1 3BP2001     0.0000 
     36 C6         41.3500    5.2350   11.6160 C.ar      1 3BP2001     0.0000 
     37 C12        44.9690    3.6190   13.7640 C.ar      1 3BP2001     0.0000 
     38 C10        43.8860    4.2960   13.1440 C.ar      1 3BP2001     0.0000 
     39 C21        42.5510    4.0440   13.4990 C.ar      1 3BP2001     0.0000 
     40 C27        42.3410    3.0250   14.4510 C.ar      1 3BP2001     0.0000 
     41 C14        43.4150    2.3380   15.0700 C.ar      1 3BP2001     0.0000 
     42 C29        44.7530    2.6470   14.7600 C.ar      1 3BP2001     0.0000 
     43 H          36.6387    7.3118    8.3981 H         1 3BP2001     0.0000 
     44 H          34.6719    9.2164    9.0185 H         1 3BP2001     0.0000 
     45 H          34.0279    9.1201    6.6650 H         1 3BP2001     0.0000 
     46 H          34.8558    7.5649    6.4754 H         1 3BP2001     0.0000 
     47 H          37.0165    8.6193    6.8162 H         1 3BP2001     0.0000 
     48 H          36.2459   10.1703    7.1912 H         1 3BP2001     0.0000 
     49 H          32.5482    9.2788    9.4153 H         1 3BP2001     0.0000 
     50 H          31.1140    6.7004    8.9415 H         1 3BP2001     0.0000 
     51 H          30.3502    8.2888    9.1249 H         1 3BP2001     0.0000 
     52 H          32.5749    6.0468   11.1948 H         1 3BP2001     0.0000 
     53 H          32.1112    5.5867   13.5363 H         1 3BP2001     0.0000 
     54 H          28.8643    8.2569   13.4280 H         1 3BP2001     0.0000 
     55 H          29.2785    8.6520   11.0748 H         1 3BP2001     0.0000 
     56 H          31.3964    5.1420   15.2529 H         1 3BP2001     0.0000 
     57 H          30.6133    5.7036   16.7685 H         1 3BP2001     0.0000 
     58 H          35.9592   11.0986    3.9174 H         1 3BP2001     0.0000 
     59 H          36.1535   11.4702    5.6638 H         1 3BP2001     0.0000 
     60 H          37.4845    7.6241   12.1957 H         1 3BP2001     0.0000 
     61 H          38.3315    7.8418   10.6545 H         1 3BP2001     0.0000 
     62 H          36.3004    5.1650   12.5152 H         1 3BP2001     0.0000 
     63 H          37.4490    5.7654    9.8163 H         1 3BP2001     0.0000 
     64 H          38.4946    3.6143   10.1889 H         1 3BP2001     0.0000 
     65 H          37.8148    1.9786   10.1382 H         1 3BP2001     0.0000 
     66 H          29.4216    7.4106   16.8021 H         1 3BP2001     0.0000 
     67 H          29.0608    8.3262   15.2997 H         1 3BP2001     0.0000 
     68 H          40.2393    6.2135   10.1018 H         1 3BP2001     0.0000 
     69 H          38.5298    6.3085   13.9441 H         1 3BP2001     0.0000 
     70 H          40.4061    5.0516   14.8058 H         1 3BP2001     0.0000 
     71 H          42.1206    4.9723   10.9701 H         1 3BP2001     0.0000 
     72 H          45.9317    3.8471   13.4758 H         1 3BP2001     0.0000 
     73 H          44.0935    4.9949   12.4092 H         1 3BP2001     0.0000 
     74 H          41.3709    2.7680   14.7083 H         1 3BP2001     0.0000 
     75 H          43.2088    1.6006   15.7580 H         1 3BP2001     0.0000 
     76 H          45.5159    2.1967   15.2259 H         1 3BP2001     0.0000 
     77 H          39.5509    2.3271   12.0343 H         1 3BP2001     0.0000 
     78 H          38.5022    3.3477   12.7011 H         1 3BP2001     0.0000 
     79 H          38.1201    1.7940   12.5392 H         1 3BP2001     0.0000 
@<TRIPOS>BOND
     1    2    1 2    
     2    3    1 am   
     3   24    1 1    
     4    4    3 1    
     5   43    3 1    
     6    5    4 1    
     7    7    4 1    
     8   44    4 1    
     9    6    5 1    
    10   45    5 1    
    11   46    5 1    
    12   19    6 1    
    13   47    6 1    
    14   48    6 1    
    15    8    7 2    
    16    9    7 am   
    17   10    9 1    
    18   49    9 1    
    19   16   10 1    
    20   50   10 1    
    21   51   10 1    
    22   12   11 ar   
    23   16   11 ar   
    24   52   11 1    
    25   13   12 ar   
    26   53   12 1    
    27   14   13 ar   
    28   17   13 1    
    29   15   14 ar   
    30   54   14 1    
    31   16   15 ar   
    32   55   15 1    
    33   18   17 ar   
    34   30   17 ar   
    35   56   18 1    
    36   57   18 1    
    37   20   19 2    
    38   21   19 am   
    39   58   21 1    
    40   59   21 1    
    41   24   22 1    
    42   32   22 1    
    43   60   22 1    
    44   61   22 1    
    45   24   23 1    
    46   25   23 1    
    47   62   23 1    
    48   63   24 1    
    49   26   25 2    
    50   27   25 2    
    51   28   25 1    
    52   29   28 1    
    53   64   28 1    
    54   65   28 1    
    55   77   29 1    
    56   78   29 1    
    57   79   29 1    
    58   66   30 1    
    59   67   30 1    
    60   32   31 ar   
    61   36   31 ar   
    62   68   31 1    
    63   33   32 ar   
    64   34   33 ar   
    65   69   33 1    
    66   35   34 ar   
    67   70   34 1    
    68   36   35 ar   
    69   39   35 1    
    70   71   36 1    
    71   38   37 ar   
    72   42   37 ar   
    73   72   37 1    
    74   39   38 ar   
    75   73   38 1    
    76   40   39 ar   
    77   41   40 ar   
    78   74   40 1    
    79   42   41 ar   
    80   75   41 1    
    81   76   42 1    
@<TRIPOS>SUBSTRUCTURE
     1 3BP2001     1 GROUP   
@<TRIPOS>SET

