#    Name: 2f99_AKV_3_INTS_M
#    Modification time : Tue Mar 25 12:23:30 2014

@<TRIPOS>MOLECULE
2f99_AKV_3_INTS_M
   42     0     6     0     0
SMALL
NO_CHARGES


@<TRIPOS>ATOM
      1 CA         31.6025    7.9910   23.6185 C.3       2 GLC5        0.0000 
      2 CA         29.7560    8.7770   23.9260 C.3       6 GLL5        0.0000 
      3 CA         33.4490    7.2050   23.3110 C.3       4 GLP5        0.0000 
      4 CA         31.2365    9.3180   25.3485 C.3       2 GLC5        0.0000 
      5 CA         32.7170    9.8590   26.7710 C.3       4 GLP5        0.0000 
      6 CA         31.6360    6.5335   23.4080 C.3       2 GLC5        0.0000 
      7 CA         29.8230    5.8620   23.5050 C.3       6 GLL5        0.0000 
      8 N          28.9350    5.4270   26.4665 N.am      1 SEC2        0.0000 
      9 N          29.0360    4.2790   25.4250 N.am      5 SEL2        0.0000 
     10 N          28.8340    6.5750   27.5080 N.am      3 SEP2        0.0000 
     11 CA         32.6475    3.8420   25.7210 C.3       2 GLC5        0.0000 
     12 CA         31.0940    3.2590   25.6490 C.3       6 GLL5        0.0000 
     13 CA         34.2010    4.4250   25.7930 C.3       4 GLP5        0.0000 
     14 CA         30.6680    4.4550   28.4250 C.3       2 GLC5        0.0000 
     15 CA         30.7550    3.0980   27.0020 C.3       6 GLL5        0.0000 
     16 CA         30.5810    5.8120   29.8480 C.3       4 GLP5        0.0000 
     17 CA         32.4155    3.9320   27.1315 C.3       2 GLC5        0.0000 
     18 CA         34.0760    4.7660   27.2610 C.3       4 GLP5        0.0000 
     19 CA         33.3840    7.6342   17.2745 C.3       2 GLC5        0.0000 
     20 CA         31.3980    7.7440   17.7710 C.3       6 GLL5        0.0000 
     21 CA         35.1990    7.7420   17.4130 C.3       4 GLP5        0.0000 
     22 CA         33.6278    8.1208   15.6442 C.3       2 GLC5        0.0000 
     23 CA         32.0100    8.2240   15.4960 C.3       6 GLL5        0.0000 
     24 CA         35.2770    7.3400   15.6640 C.3       4 GLP5        0.0000 
     25 CA         30.2362   10.6070   15.4555 C.3       2 GLC5        0.0000 
     26 CA         31.9470    9.5790   15.7530 C.3       6 GLL5        0.0000 
     27 CA         28.6920   11.4170   14.5270 C.3       4 GLP5        0.0000 
     28 CA         32.8892   11.2000   16.2780 C.3       2 GLC5        0.0000 
     29 CA         33.9980   12.6030   16.1720 C.3       4 GLP5        0.0000 
     30 CA         33.3362    8.6515   17.4665 C.3       2 GLC5        0.0000 
     31 CA         31.6140   10.0150   17.0150 C.3       6 GLL5        0.0000 
     32 CA         28.8388    9.9670   20.6170 C.3       2 GLC5        0.0000 
     33 CA         30.7280    8.6440   20.3000 C.3       6 GLL5        0.0000 
     34 CA         27.1140   11.0560   20.3060 C.3       4 GLP5        0.0000 
     35 CA         32.2087    4.8697   24.5340 C.3       2 GLC5        0.0000 
     36 CA         30.6500    4.6930   23.7490 C.3       6 GLL5        0.0000 
     37 CA         33.9660    5.3050   24.6830 C.3       4 GLP5        0.0000 
     38 CA         29.8354    3.3184   23.4470 C.3       2 GLC5        0.0000 
     39 CA         30.2530    4.1760   25.0210 C.3       6 GLL5        0.0000 
     40 CA         29.4260    1.9100   22.5700 C.3       4 GLP5        0.0000 
     41 CA         30.5928    1.7348   25.2432 C.3       2 GLC5        0.0000 
     42 CA         30.2610    0.2910   24.1610 C.3       4 GLP5        0.0000 
@<TRIPOS>BOND
@<TRIPOS>SUBSTRUCTURE
     1 SEC2        8 GROUP        1 X    SEC  0     ROOT SEC X 2
     2 GLC5        1 GROUP        1 X    GLC  0     **** GLC X 6
     3 SEP2       10 GROUP        1 Y    SEP  0     ROOT SEP Y 9
     4 GLP5        3 GROUP        1 Y    GLP  0     **** GLP Y 13
     5 SEL2        9 GROUP        1 Z    SEL  0     ROOT SEL Z 16
     6 GLL5        2 GROUP        1 Z    GLL  0     **** GLL Z 20
@<TRIPOS>SET

