#    Name: 2f99_AKV_3_ligand
#    Modification time : Tue Mar 25 12:23:30 2014

@<TRIPOS>MOLECULE
2f99_AKV_3_ligand
   52    54     1     0     0
SMALL
NO_CHARGES


@<TRIPOS>ATOM
      1 O20        31.1710    5.6150   18.5600 O.2       1 AKV1333     0.0000 
      2 C5         31.1170    6.8290   18.7900 C.2       1 AKV1333     0.0000 
      3 C17        30.7790    7.2740   20.0630 C.ar      1 AKV1333     0.0000 
      4 C6         30.5010    6.3520   21.0860 C.ar      1 AKV1333     0.0000 
      5 O21        30.5550    5.0320   20.8340 O.3       1 AKV1333     0.0000 
      6 C16        31.3980    7.7440   17.7710 C.ar      1 AKV1333     0.0000 
      7 C4         31.7400    7.3090   16.5010 C.ar      1 AKV1333     0.0000 
      8 O19        31.8060    5.9880   16.2300 O.3       1 AKV1333     0.0000 
      9 C3         32.0100    8.2240   15.4960 C.ar      1 AKV1333     0.0000 
     10 C2         31.9470    9.5790   15.7530 C.ar      1 AKV1333     0.0000 
     11 C1         31.6140   10.0150   17.0150 C.ar      1 AKV1333     0.0000 
     12 C21        31.3330    9.1070   18.0250 C.ar      1 AKV1333     0.0000 
     13 C12        31.0070    9.5580   19.2930 C.2       1 AKV1333     0.0000 
     14 O18        30.9530   10.7810   19.5090 O.2       1 AKV1333     0.0000 
     15 C18        30.7280    8.6440   20.3000 C.ar      1 AKV1333     0.0000 
     16 C11        30.3990    9.1120   21.5560 C.ar      1 AKV1333     0.0000 
     17 C19        30.1060    8.2460   22.5930 C.ar      1 AKV1333     0.0000 
     18 C10        29.7560    8.7770   23.9260 C.3       1 AKV1333     0.0000 
     19 C14        28.3890    9.0950   24.0210 C.2       1 AKV1333     0.0000 
     20 O16        27.3950    8.0510   23.9380 O.3       1 AKV1333     0.0000 
     21 C15        26.7710    7.9260   25.2090 C.3       1 AKV1333     0.0000 
     22 O17        28.0220   10.2470   24.0490 O.2       1 AKV1333     0.0000 
     23 C20        30.1700    6.7850   22.3580 C.ar      1 AKV1333     0.0000 
     24 C7         29.8230    5.8620   23.5050 C.3       1 AKV1333     0.0000 
     25 O22        29.8020    6.5520   24.7050 O.3       1 AKV1333     0.0000 
     26 C8         30.6500    4.6930   23.7490 C.3       1 AKV1333     0.0000 
     27 C9         30.2530    4.1760   25.0210 C.3       1 AKV1333     0.0000 
     28 O23        29.0360    4.2790   25.4250 O.3       1 AKV1333     0.0000 
     29 C13        31.0940    3.2590   25.6490 C.3       1 AKV1333     0.0000 
     30 C22        30.7550    3.0980   27.0020 C.3       1 AKV1333     0.0000 
     31 H          32.2592    7.8887   14.5516 H         1 AKV1333     0.0000 
     32 H          32.1480   10.2564   15.0049 H         1 AKV1333     0.0000 
     33 H          31.5715   11.0298   17.2173 H         1 AKV1333     0.0000 
     34 H          30.3706   10.1385   21.7271 H         1 AKV1333     0.0000 
     35 H          30.3913    9.6682   24.1266 H         1 AKV1333     0.0000 
     36 H          30.0481    8.0241   24.6915 H         1 AKV1333     0.0000 
     37 H          28.7723    5.4926   23.3177 H         1 AKV1333     0.0000 
     38 H          31.7028    4.9768   23.7556 H         1 AKV1333     0.0000 
     39 H          30.4921    3.9546   22.9623 H         1 AKV1333     0.0000 
     40 H          30.7341    5.2429   25.7115 H         1 AKV1333     0.0000 
     41 H          32.1620    3.5835   25.5583 H         1 AKV1333     0.0000 
     42 H          31.0542    2.2703   25.1245 H         1 AKV1333     0.0000 
     43 H          27.4286    7.6879   25.9238 H         1 AKV1333     0.0000 
     44 H          26.3276    8.7770   25.4903 H         1 AKV1333     0.0000 
     45 H          26.0677    7.2151   25.2092 H         1 AKV1333     0.0000 
     46 H          31.3540    2.4407   27.4593 H         1 AKV1333     0.0000 
     47 H          30.8242    3.9583   27.5071 H         1 AKV1333     0.0000 
     48 H          29.8178    2.7673   27.1133 H         1 AKV1333     0.0000 
     49 H          30.3513    4.9463   19.8587 H         1 AKV1333     0.0000 
     50 H          31.1387    5.5646   16.8428 H         1 AKV1333     0.0000 
     51 H          29.5282    5.8748   25.3880 H         1 AKV1333     0.0000 
     52 H          28.4800    3.9765   24.6508 H         1 AKV1333     0.0000 
@<TRIPOS>BOND
     1    2    1 2    
     2    3    2 1    
     3    6    2 1    
     4    4    3 ar   
     5   15    3 ar   
     6    5    4 1    
     7   23    4 ar   
     8   49    5 1    
     9    7    6 ar   
    10   12    6 ar   
    11    8    7 1    
    12    9    7 ar   
    13   50    8 1    
    14   10    9 ar   
    15   31    9 1    
    16   11   10 ar   
    17   32   10 1    
    18   12   11 ar   
    19   33   11 1    
    20   13   12 1    
    21   14   13 2    
    22   15   13 1    
    23   16   15 ar   
    24   17   16 ar   
    25   34   16 1    
    26   18   17 1    
    27   23   17 ar   
    28   19   18 1    
    29   35   18 1    
    30   36   18 1    
    31   20   19 1    
    32   22   19 2    
    33   21   20 1    
    34   43   21 1    
    35   44   21 1    
    36   45   21 1    
    37   24   23 1    
    38   25   24 1    
    39   26   24 1    
    40   37   24 1    
    41   51   25 1    
    42   27   26 1    
    43   38   26 1    
    44   39   26 1    
    45   28   27 1    
    46   29   27 1    
    47   40   27 1    
    48   52   28 1    
    49   30   29 1    
    50   41   29 1    
    51   42   29 1    
    52   46   30 1    
    53   47   30 1    
    54   48   30 1    
@<TRIPOS>SUBSTRUCTURE
     1 AKV1333     1 GROUP   
@<TRIPOS>SET

