#    Name: 4a81_2AN_2_INTS_M
#    Modification time : Tue Mar 25 05:14:40 2014

@<TRIPOS>MOLECULE
4a81_2AN_2_INTS_M
   36     0     3     0     0
SMALL
NO_CHARGES


@<TRIPOS>ATOM
      1 CA         -1.3570    2.4260   12.3740 C.3       1 GLC5        0.0000 
      2 CA          0.5410    3.4050   12.4700 C.3       3 GLL5        0.0000 
      3 CA         -3.2550    1.4470   12.2780 C.3       2 GLP5        0.0000 
      4 CA          2.2060    6.1060   10.3000 C.3       1 GLC5        0.0000 
      5 CA          1.8310    4.1070   10.5500 C.3       3 GLL5        0.0000 
      6 CA          2.5810    8.1050   10.0500 C.3       2 GLP5        0.0000 
      7 CA          4.3150    2.0002    9.4685 C.3       1 GLC5        0.0000 
      8 CA          5.2590    3.3290   10.4340 C.3       3 GLL5        0.0000 
      9 CA          3.4020    1.2690    8.1350 C.3       2 GLP5        0.0000 
     10 CA          5.0297    1.2548    9.3670 C.3       1 GLC5        0.0000 
     11 CA          7.1760    1.3360   10.1610 C.3       3 GLL5        0.0000 
     12 CA          7.8208    0.7848    8.4367 C.3       1 GLC5        0.0000 
     13 CA          8.4160   -0.3510    7.0760 C.3       2 GLP5        0.0000 
     14 CA          5.1028    2.1472    8.8070 C.3       1 GLC5        0.0000 
     15 CA          7.2750    2.5050    9.4340 C.3       3 GLL5        0.0000 
     16 CA          7.4371    4.6116   10.4808 C.3       1 GLC5        0.0000 
     17 CA          8.3390    6.2520   11.2550 C.3       2 GLP5        0.0000 
     18 CA          8.4305    1.3938    7.6332 C.3       1 GLC5        0.0000 
     19 CA          8.3580    2.5810    8.5890 C.3       3 GLL5        0.0000 
     20 CA          5.7438    4.2800    6.9817 C.3       1 GLC5        0.0000 
     21 CA          7.6480    4.7460    7.8450 C.3       3 GLL5        0.0000 
     22 CA          4.3970    3.8250    5.6950 C.3       2 GLP5        0.0000 
     23 CA          7.8253    5.3622    9.7551 C.3       1 GLC5        0.0000 
     24 CA          6.5330    4.7240    8.6920 C.3       3 GLL5        0.0000 
     25 CA          2.9155    2.6597    9.5218 C.3       1 GLC5        0.0000 
     26 CA          2.9245    3.7002   14.4088 C.3       1 GLC5        0.0000 
     27 CA          2.9580    3.5890   12.6030 C.3       3 GLL5        0.0000 
     28 CA          3.5080    3.9640   15.9170 C.3       2 GLP5        0.0000 
     29 CA          0.8967    1.2177   12.6955 C.3       1 GLC5        0.0000 
     30 CA          1.7240    3.2840   13.1980 C.3       3 GLL5        0.0000 
     31 CA          0.6610   -0.9090   12.5570 C.3       2 GLP5        0.0000 
     32 CA          2.9601    5.4129   12.7008 C.3       1 GLC5        0.0000 
     33 CA          3.5620    7.2880   12.8350 C.3       2 GLP5        0.0000 
     34 CA          1.1030    4.5636    9.4384 C.3       1 GLC5        0.0000 
     35 CA          3.0270    3.9940   11.2670 C.3       3 GLL5        0.0000 
     36 CA          0.6940    5.1960    7.8560 C.3       2 GLP5        0.0000 
@<TRIPOS>BOND
@<TRIPOS>SUBSTRUCTURE
     1 GLC5        1 GROUP        1 X    GLC  0     ROOT GLC X 6
     2 GLP5        3 GROUP        1 Y    GLP  0     ROOT GLP Y 13
     3 GLL5        2 GROUP        1 Z    GLL  0     ROOT GLL Z 20
@<TRIPOS>SET

