#    Name: 4a81_2AN_2_ligand
#    Modification time : Tue Mar 25 05:14:40 2014

@<TRIPOS>MOLECULE
4a81_2AN_2_ligand
   33    35     1     0     0
SMALL
NO_CHARGES


@<TRIPOS>ATOM
      1 C1          5.2590    3.3290   10.4340 C.ar      1 2AN1162     0.0000 
      2 C2          5.1970    2.1340   11.1700 C.ar      1 2AN1162     0.0000 
      3 C3          6.1390    1.1450   11.0370 C.ar      1 2AN1162     0.0000 
      4 C4          7.1760    1.3360   10.1610 C.ar      1 2AN1162     0.0000 
      5 C5          7.2750    2.5050    9.4340 C.ar      1 2AN1162     0.0000 
      6 C6          8.3580    2.5810    8.5890 C.ar      1 2AN1162     0.0000 
      7 C7          8.5320    3.6960    7.7920 C.ar      1 2AN1162     0.0000 
      8 C8          7.6480    4.7460    7.8450 C.ar      1 2AN1162     0.0000 
      9 N           4.2590    4.3310   10.6220 N.pl3     1 2AN1162     0.0000 
     10 S           5.6170    6.0870    8.5490 S.o2      1 2AN1162     0.0000 
     11 C9          6.5330    4.7240    8.6920 C.ar      1 2AN1162     0.0000 
     12 C10         6.3320    3.5460    9.5240 C.ar      1 2AN1162     0.0000 
     13 C11         3.0270    3.9940   11.2670 C.ar      1 2AN1162     0.0000 
     14 C12         2.9580    3.5890   12.6030 C.ar      1 2AN1162     0.0000 
     15 C13         1.7240    3.2840   13.1980 C.ar      1 2AN1162     0.0000 
     16 C14         0.5410    3.4050   12.4700 C.ar      1 2AN1162     0.0000 
     17 C15         0.5950    3.8120   11.1330 C.ar      1 2AN1162     0.0000 
     18 C16         1.8310    4.1070   10.5500 C.ar      1 2AN1162     0.0000 
     19 O1          5.8710    6.7470    7.2820 O.co2     1 2AN1162     0.0000 
     20 O2          5.8620    7.0630    9.5840 O.co2     1 2AN1162     0.0000 
     21 O3          4.0100    5.7490    8.5120 O.co2     1 2AN1162     0.0000 
     22 H           4.4031    2.0074   11.8362 H         1 2AN1162     0.0000 
     23 H           6.0679    0.2794   11.5831 H         1 2AN1162     0.0000 
     24 H           7.8948    0.5978   10.0405 H         1 2AN1162     0.0000 
     25 H           9.0401    1.8085    8.5487 H         1 2AN1162     0.0000 
     26 H           9.3437    3.7375    7.1449 H         1 2AN1162     0.0000 
     27 H           7.8004    5.5832    7.2459 H         1 2AN1162     0.0000 
     28 H           4.4203    5.2787   10.2998 H         1 2AN1162     0.0000 
     29 H           3.8217    3.5127   13.1597 H         1 2AN1162     0.0000 
     30 H           1.6965    2.9698   14.1766 H         1 2AN1162     0.0000 
     31 H          -0.3594    3.1984   12.9081 H         1 2AN1162     0.0000 
     32 H          -0.2650    3.8933   10.5851 H         1 2AN1162     0.0000 
     33 H           1.8625    4.4176    9.5607 H         1 2AN1162     0.0000 
@<TRIPOS>BOND
     1    2    1 ar   
     2    9    1 1    
     3   12    1 ar   
     4    3    2 ar   
     5   22    2 1    
     6    4    3 ar   
     7   23    3 1    
     8    5    4 ar   
     9   24    4 1    
    10    6    5 ar   
    11   12    5 ar   
    12    7    6 ar   
    13   25    6 1    
    14    8    7 ar   
    15   26    7 1    
    16   11    8 ar   
    17   27    8 1    
    18   13    9 1    
    19   28    9 1    
    20   11   10 1    
    21   19   10 ar   
    22   20   10 ar   
    23   21   10 ar   
    24   12   11 ar   
    25   14   13 ar   
    26   18   13 ar   
    27   15   14 ar   
    28   29   14 1    
    29   16   15 ar   
    30   30   15 1    
    31   17   16 ar   
    32   31   16 1    
    33   18   17 ar   
    34   32   17 1    
    35   33   18 1    
@<TRIPOS>SUBSTRUCTURE
     1 2AN1162     1 GROUP   
@<TRIPOS>SET

