#    Name: 1ihx_SND_3_INTS_M
#    Modification time : Tue Mar 25 07:02:16 2014

@<TRIPOS>MOLECULE
1ihx_SND_3_INTS_M
   65     0     9     0     0
SMALL
NO_CHARGES


@<TRIPOS>ATOM
      1 CA         52.2260   -9.9555   33.8235 C.3       3 GLC5        0.0000 
      2 CA         50.4170   -9.5150   34.7910 C.3       9 GLL5        0.0000 
      3 CA         54.0350  -10.3960   32.8560 C.3       6 GLP5        0.0000 
      4 CA         51.8120  -11.9245   35.8545 C.3       3 GLC5        0.0000 
      5 CA         50.8420  -10.1630   36.0500 C.3       9 GLL5        0.0000 
      6 CA         52.7820  -13.6860   35.6590 C.3       6 GLP5        0.0000 
      7 O          50.1310  -11.3415   38.5530 O.2       1 ALC1        0.0000 
      8 O          49.3640  -10.1890   38.0610 O.2       7 ALL1        0.0000 
      9 O          50.8980  -12.4940   39.0450 O.2       4 ALP1        0.0000 
     10 CA         52.6780   -8.4435   39.8580 C.3       3 GLC5        0.0000 
     11 CA         51.6280   -9.1210   38.0870 C.3       9 GLL5        0.0000 
     12 CA         53.7280   -7.7660   41.6290 C.3       6 GLP5        0.0000 
     13 O          51.8930  -10.3630   39.9700 O.2       1 ALC1        0.0000 
     14 O          51.4790   -9.2050   39.5310 O.2       7 ALL1        0.0000 
     15 O          52.3070  -11.5210   40.4090 O.2       4 ALP1        0.0000 
     16 O          51.1885  -10.8495   39.2880 O.2       1 ALC1        0.0000 
     17 CA         52.7245  -11.8845   36.5545 C.3       3 GLC5        0.0000 
     18 CA         52.6670  -10.0830   37.4500 C.3       9 GLL5        0.0000 
     19 O          59.5660   -8.8415   38.9120 O.2       1 ALC1        0.0000 
     20 O          58.4920   -8.7840   37.9750 O.2       7 ALL1        0.0000 
     21 O          60.6400   -8.8990   39.8490 O.2       4 ALP1        0.0000 
     22 CA         55.3105  -12.9020   39.5120 C.3       3 GLC5        0.0000 
     23 CA         56.8310  -11.9650   38.2180 C.3       9 GLL5        0.0000 
     24 CA         53.7900  -13.8390   40.8060 C.3       6 GLP5        0.0000 
     25 CA         56.1680  -11.7200   39.7245 C.3       3 GLC5        0.0000 
     26 CA         55.5050  -11.4750   41.2310 C.3       6 GLP5        0.0000 
     27 CA         56.2585  -11.7855   36.2600 C.3       3 GLC5        0.0000 
     28 CA         55.6860  -11.6060   34.3020 C.3       6 GLP5        0.0000 
     29 N          46.8635  -12.2510   31.2705 N.am      2 SEC2        0.0000 
     30 N          47.4990  -11.0080   31.4010 N.am      8 SEL2        0.0000 
     31 N          46.2280  -13.4940   31.1400 N.am      5 SEP2        0.0000 
     32 CA         48.7555  -11.4100   29.2120 C.3       3 GLC5        0.0000 
     33 CA         50.1950   -9.9150   30.0110 C.3       9 GLL5        0.0000 
     34 CA         47.3160  -12.9050   28.4130 C.3       6 GLP5        0.0000 
     35 CA         52.1750   -9.5970   26.8860 C.3       3 GLC5        0.0000 
     36 CA         50.8260   -9.5010   28.6690 C.3       9 GLL5        0.0000 
     37 CA         53.5240   -9.6930   25.1030 C.3       6 GLP5        0.0000 
     38 CA         51.6670   -9.4330   25.8335 C.3       3 GLC5        0.0000 
     39 CA         49.8100   -9.1730   26.5640 C.3       9 GLL5        0.0000 
     40 CA         47.3060  -11.0670   27.2345 C.3       3 GLC5        0.0000 
     41 CA         47.2960   -9.2290   26.0560 C.3       9 GLL5        0.0000 
     42 CA         48.7535  -10.6775   22.1040 C.3       3 GLC5        0.0000 
     43 CA         47.8350  -11.1070   24.0150 C.3       9 GLL5        0.0000 
     44 CA         49.6720  -10.2480   20.1930 C.3       6 GLP5        0.0000 
     45 CA         51.0960  -10.6340   24.3645 C.3       3 GLC5        0.0000 
     46 CA         48.8990  -10.6090   24.7740 C.3       9 GLL5        0.0000 
     47 CA         53.2930  -10.6590   23.9550 C.3       6 GLP5        0.0000 
     48 CA         49.0272  -11.0630   35.3233 C.3       3 GLC5        0.0000 
     49 CA         47.4250  -12.2870   35.2260 C.3       6 GLP5        0.0000 
     50 CA         55.6942  -10.7205   36.0397 C.3       3 GLC5        0.0000 
     51 CA         55.1880  -10.3060   37.7750 C.3       9 GLL5        0.0000 
     52 CA         55.7709  -10.7001   39.5304 C.3       3 GLC5        0.0000 
     53 CA         52.6168   -8.4250   29.1872 C.3       3 GLC5        0.0000 
     54 CA         54.4440   -8.1090   29.8720 C.3       6 GLP5        0.0000 
     55 CA         46.2257  -11.7850   26.2050 C.3       3 GLC5        0.0000 
     56 CA         46.2330   -9.7430   25.2770 C.3       9 GLL5        0.0000 
     57 CA         46.0760  -13.3600   27.6390 C.3       6 GLP5        0.0000 
     58 CA         42.9705   -9.5020   23.9765 C.3       3 GLC5        0.0000 
     59 CA         44.2860   -8.4310   24.7620 C.3       9 GLL5        0.0000 
     60 CA         41.4160  -10.1330   22.8290 C.3       6 GLP5        0.0000 
     61 CA         45.0331   -8.9225   23.4579 C.3       3 GLC5        0.0000 
     62 CA         45.1740   -8.8660   21.8440 C.3       6 GLP5        0.0000 
     63 CA         46.0888  -10.7685   22.7645 C.3       3 GLC5        0.0000 
     64 CA         46.5180  -10.6770   24.2650 C.3       9 GLL5        0.0000 
     65 CA         45.0010  -10.6450   21.3890 C.3       6 GLP5        0.0000 
@<TRIPOS>BOND
@<TRIPOS>SUBSTRUCTURE
     1 ALC1        7 GROUP        1 X    ALC  0     ROOT ALC X 1
     2 SEC2       29 GROUP        1 X    SEC  0     **** SEC X 2
     3 GLC5        1 GROUP        1 X    GLC  0     **** GLC X 6
     4 ALP1        9 GROUP        1 Y    ALP  0     ROOT ALP Y 8
     5 SEP2       31 GROUP        1 Y    SEP  0     **** SEP Y 9
     6 GLP5        3 GROUP        1 Y    GLP  0     **** GLP Y 13
     7 ALL1        8 GROUP        1 Z    ALL  0     ROOT ALL Z 15
     8 SEL2       30 GROUP        1 Z    SEL  0     **** SEL Z 16
     9 GLL5        2 GROUP        1 Z    GLL  0     **** GLL Z 20
@<TRIPOS>SET

