#    Name: 1ihx_SND_3_ligand
#    Modification time : Tue Mar 25 07:02:16 2014

@<TRIPOS>MOLECULE
1ihx_SND_3_ligand
   70    74     1     0     0
SMALL
NO_CHARGES


@<TRIPOS>ATOM
      1 PA         48.1890   -8.5000   33.8860 P.3       1 SND337      0.0000 
      2 O1A        48.7390   -7.1460   34.1220 O.co2     1 SND337      0.0000 
      3 O2A        46.7290   -8.6420   34.0440 O.co2     1 SND337      0.0000 
      4 O5B        48.9960   -9.5260   34.7960 O.3       1 SND337      0.0000 
      5 C5B        50.4170   -9.5150   34.7910 C.3       1 SND337      0.0000 
      6 C4B        50.8420  -10.1630   36.0500 C.3       1 SND337      0.0000 
      7 O4B        52.2800  -10.1460   36.0580 O.3       1 SND337      0.0000 
      8 C3B        50.3510   -9.4250   37.2930 C.3       1 SND337      0.0000 
      9 O3B        49.3640  -10.1890   38.0610 O.3       1 SND337      0.0000 
     10 C2B        51.6280   -9.1210   38.0870 C.3       1 SND337      0.0000 
     11 O2B        51.4790   -9.2050   39.5310 O.3       1 SND337      0.0000 
     12 C1B        52.6670  -10.0830   37.4500 C.3       1 SND337      0.0000 
     13 N9A        54.0850   -9.5790   37.5480 N.pl3     1 SND337      0.0000 
     14 C8A        54.4840   -8.2830   37.4090 C.2       1 SND337      0.0000 
     15 N7A        55.8060   -8.1430   37.5500 N.2       1 SND337      0.0000 
     16 C5A        56.2170   -9.3640   37.7800 C.ar      1 SND337      0.0000 
     17 C6A        57.5540   -9.7250   37.9890 C.ar      1 SND337      0.0000 
     18 N6A        58.4920   -8.7840   37.9750 N.pl3     1 SND337      0.0000 
     19 N1A        57.8340  -11.0540   38.2160 N.ar      1 SND337      0.0000 
     20 C2A        56.8310  -11.9650   38.2180 C.ar      1 SND337      0.0000 
     21 N3A        55.5330  -11.6030   38.0120 N.ar      1 SND337      0.0000 
     22 C4A        55.1880  -10.3060   37.7750 C.ar      1 SND337      0.0000 
     23 O3         48.6230   -9.0480   32.4440 O.3       1 SND337      0.0000 
     24 PN         47.8110   -9.5730   31.1820 P.3       1 SND337      0.0000 
     25 O1N        47.4990  -11.0080   31.4010 O.co2     1 SND337      0.0000 
     26 O2N        46.6780   -8.6540   30.8470 O.co2     1 SND337      0.0000 
     27 O5D        48.8350   -9.5260   29.9490 O.3       1 SND337      0.0000 
     28 C5D        50.1950   -9.9150   30.0110 C.3       1 SND337      0.0000 
     29 C4D        50.8260   -9.5010   28.6690 C.3       1 SND337      0.0000 
     30 O4D        50.1880  -10.1770   27.5490 O.3       1 SND337      0.0000 
     31 C3D        50.7530   -7.9810   28.3360 C.3       1 SND337      0.0000 
     32 O3D        52.0000   -7.4720   27.7900 O.3       1 SND337      0.0000 
     33 C2D        49.6150   -7.8730   27.3340 C.3       1 SND337      0.0000 
     34 O2D        49.6120   -6.6950   26.5280 O.3       1 SND337      0.0000 
     35 C1D        49.8100   -9.1730   26.5640 C.3       1 SND337      0.0000 
     36 N1N        48.6320   -9.6700   25.7980 N.pl3     1 SND337      0.0000 
     37 C2N        47.2960   -9.2290   26.0560 C.ar      1 SND337      0.0000 
     38 C3N        46.2330   -9.7430   25.2770 C.ar      1 SND337      0.0000 
     39 C7N        44.7640   -9.3110   25.4860 C.2       1 SND337      0.0000 
     40 S7N        44.2860   -8.4310   24.7620 S.2       1 SND337      0.0000 
     41 N7N        44.0570   -9.9020   26.4590 N.am      1 SND337      0.0000 
     42 C4N        46.5180  -10.6770   24.2650 C.ar      1 SND337      0.0000 
     43 C5N        47.8350  -11.1070   24.0150 C.ar      1 SND337      0.0000 
     44 C6N        48.8990  -10.6090   24.7740 C.ar      1 SND337      0.0000 
     45 H          50.8086   -8.5000   34.7613 H         1 SND337      0.0000 
     46 H          50.8179  -10.0743   33.9479 H         1 SND337      0.0000 
     47 H          50.4856  -11.1738   36.0827 H         1 SND337      0.0000 
     48 H          49.9495   -8.4725   36.9622 H         1 SND337      0.0000 
     49 H          51.9370   -8.1080   37.7685 H         1 SND337      0.0000 
     50 H          52.5651  -11.0339   37.9086 H         1 SND337      0.0000 
     51 H          53.8556   -7.5404   37.2248 H         1 SND337      0.0000 
     52 H          58.6079   -8.2910   37.1127 H         1 SND337      0.0000 
     53 H          58.9974   -8.6537   38.8281 H         1 SND337      0.0000 
     54 H          57.0560  -12.9781   38.3824 H         1 SND337      0.0000 
     55 H          50.3176  -10.9861   30.1133 H         1 SND337      0.0000 
     56 H          50.7381   -9.4069   30.7982 H         1 SND337      0.0000 
     57 H          51.8868   -9.7690   28.6806 H         1 SND337      0.0000 
     58 H          50.4562   -7.4753   29.2322 H         1 SND337      0.0000 
     59 H          48.6939   -8.0040   27.9082 H         1 SND337      0.0000 
     60 H          50.6558   -9.0349   25.8847 H         1 SND337      0.0000 
     61 H          47.1200   -8.5546   26.7914 H         1 SND337      0.0000 
     62 H          44.5488  -10.5715   27.0157 H         1 SND337      0.0000 
     63 H          43.1009   -9.6206   26.5412 H         1 SND337      0.0000 
     64 H          45.7461  -11.0554   23.6934 H         1 SND337      0.0000 
     65 H          48.0115  -11.7911   23.2694 H         1 SND337      0.0000 
     66 H          49.8527  -10.9127   24.5982 H         1 SND337      0.0000 
     67 H          49.8553  -10.9996   38.3796 H         1 SND337      0.0000 
     68 H          51.3340  -10.1762   39.7200 H         1 SND337      0.0000 
     69 H          51.7439   -7.0258   26.9325 H         1 SND337      0.0000 
     70 H          49.3699   -7.0101   25.6104 H         1 SND337      0.0000 
@<TRIPOS>BOND
     1    2    1 ar   
     2    3    1 ar   
     3    4    1 1    
     4   23    1 1    
     5    5    4 1    
     6    6    5 1    
     7   45    5 1    
     8   46    5 1    
     9    7    6 1    
    10    8    6 1    
    11   47    6 1    
    12   12    7 1    
    13    9    8 1    
    14   10    8 1    
    15   48    8 1    
    16   67    9 1    
    17   11   10 1    
    18   12   10 1    
    19   49   10 1    
    20   68   11 1    
    21   13   12 1    
    22   50   12 1    
    23   14   13 1    
    24   22   13 1    
    25   15   14 2    
    26   51   14 1    
    27   16   15 1    
    28   17   16 ar   
    29   22   16 ar   
    30   18   17 1    
    31   19   17 ar   
    32   52   18 1    
    33   53   18 1    
    34   20   19 ar   
    35   21   20 ar   
    36   54   20 1    
    37   22   21 ar   
    38   24   23 1    
    39   25   24 ar   
    40   26   24 ar   
    41   27   24 1    
    42   28   27 1    
    43   29   28 1    
    44   55   28 1    
    45   56   28 1    
    46   30   29 1    
    47   31   29 1    
    48   57   29 1    
    49   35   30 1    
    50   32   31 1    
    51   33   31 1    
    52   58   31 1    
    53   69   32 1    
    54   34   33 1    
    55   35   33 1    
    56   59   33 1    
    57   70   34 1    
    58   36   35 1    
    59   60   35 1    
    60   37   36 ar   
    61   44   36 ar   
    62   38   37 ar   
    63   61   37 1    
    64   39   38 1    
    65   42   38 ar   
    66   40   39 2    
    67   41   39 am   
    68   62   41 1    
    69   63   41 1    
    70   43   42 ar   
    71   64   42 1    
    72   44   43 ar   
    73   65   43 1    
    74   66   44 1    
@<TRIPOS>SUBSTRUCTURE
     1 SND337      1 GROUP   
@<TRIPOS>SET

