#    Name: 1yrs_L47_2_INTS_M
#    Modification time : Tue Mar 25 11:14:36 2014

@<TRIPOS>MOLECULE
1yrs_L47_2_INTS_M
   61     0     6     0     0
SMALL
NO_CHARGES


@<TRIPOS>ATOM
      1 CA         39.1275   18.9035   54.3685 C.3       2 GLC5        0.0000 
      2 CA         37.9680   17.1950   54.0850 C.3       6 GLL5        0.0000 
      3 CA         40.2870   20.6120   54.6520 C.3       4 GLP5        0.0000 
      4 CA         40.0220   18.6470   53.2325 C.3       2 GLC5        0.0000 
      5 CA         38.9890   16.9640   53.0990 C.3       6 GLL5        0.0000 
      6 CA         41.0550   20.3300   53.3660 C.3       4 GLP5        0.0000 
      7 CA         37.9115   17.0200   50.6595 C.3       2 GLC5        0.0000 
      8 CA         38.7810   15.8830   52.1520 C.3       6 GLL5        0.0000 
      9 CA         37.0420   18.1570   49.1670 C.3       4 GLP5        0.0000 
     10 CA         35.6010   13.4580   53.1365 C.3       2 GLC5        0.0000 
     11 CA         36.5180   15.3090   53.1990 C.3       6 GLL5        0.0000 
     12 CA         34.6840   11.6070   53.0740 C.3       4 GLP5        0.0000 
     13 CA         39.8800   12.9845   51.7130 C.3       2 GLC5        0.0000 
     14 CA         40.1280   14.4070   50.3590 C.3       6 GLL5        0.0000 
     15 CA         39.6320   11.5620   53.0670 C.3       4 GLP5        0.0000 
     16 CA         39.5195   12.7445   47.4835 C.3       2 GLC5        0.0000 
     17 CA         41.0760   14.1320   47.9180 C.3       6 GLL5        0.0000 
     18 CA         37.9630   11.3570   47.0490 C.3       4 GLP5        0.0000 
     19 CA         44.7640   13.6085   49.5180 C.3       2 GLC5        0.0000 
     20 CA         44.0660   15.4240   49.4330 C.3       6 GLL5        0.0000 
     21 CA         45.4620   11.7930   49.6030 C.3       4 GLP5        0.0000 
     22 CA         44.9230   15.6145   48.0190 C.3       2 GLC5        0.0000 
     23 CA         45.7800   15.8050   46.6050 C.3       4 GLP5        0.0000 
     24 CA         40.0265   12.1055   46.5625 C.3       2 GLC5        0.0000 
     25 CA         42.0900   12.8540   46.0760 C.3       6 GLL5        0.0000 
     26 CA         43.7815   12.5075   48.5380 C.3       2 GLC5        0.0000 
     27 CA         42.1010   13.2220   47.4730 C.3       6 GLL5        0.0000 
     28 CA         41.8435   11.1970   46.7805 C.3       2 GLC5        0.0000 
     29 CA         41.5860    9.1720   46.0880 C.3       4 GLP5        0.0000 
     30 CA         37.9255   12.9455   52.5345 C.3       2 GLC5        0.0000 
     31 CA         37.3410   13.7650   51.1510 C.3       6 GLL5        0.0000 
     32 CA         38.5100   12.1260   53.9180 C.3       4 GLP5        0.0000 
     33 CA         35.7290   13.2120   50.6565 C.3       2 GLC5        0.0000 
     34 CA         34.1170   12.6590   50.1620 C.3       4 GLP5        0.0000 
     35 CA         37.1965   12.5280   49.7005 C.3       2 GLC5        0.0000 
     36 CA         37.0520   11.2910   48.2500 C.3       4 GLP5        0.0000 
     37 CA         36.2635   15.1905   50.5095 C.3       2 GLC5        0.0000 
     38 CA         35.1860   16.6160   49.8680 C.3       4 GLP5        0.0000 
     39 O          44.0990   11.7860   46.4210 O.2       1 ALC1        0.0000 
     40 O          43.0930   12.0190   45.6010 O.2       5 ALL1        0.0000 
     41 O          45.1050   11.5530   47.2410 O.2       3 ALP1        0.0000 
     42 CA         35.8395   17.3150   55.2328 C.3       2 GLC5        0.0000 
     43 CA         34.3190   17.8390   56.3630 C.3       4 GLP5        0.0000 
     44 CA         36.1115   15.9035   51.2915 C.3       2 GLC5        0.0000 
     45 CA         37.5560   15.0730   52.2310 C.3       6 GLL5        0.0000 
     46 CA         37.9266   13.7598   53.3066 C.3       2 GLC5        0.0000 
     47 CA         43.0892   14.4625   46.7687 C.3       2 GLC5        0.0000 
     48 CA         44.5900   15.2480   45.8420 C.3       4 GLP5        0.0000 
     49 CA         38.3290   15.1990   47.1277 C.3       2 GLC5        0.0000 
     50 CA         40.0200   14.2530   45.6170 C.3       6 GLL5        0.0000 
     51 CA         36.6280   15.9670   47.9370 C.3       4 GLP5        0.0000 
     52 CA         40.6070   14.9750   43.8170 C.3       2 GLC5        0.0000 
     53 CA         40.6690   16.1410   42.2450 C.3       4 GLP5        0.0000 
     54 CA         43.0850   14.1787   45.7302 C.3       2 GLC5        0.0000 
     55 CA         41.0700   13.3650   45.1610 C.3       6 GLL5        0.0000 
     56 CA         42.8485   12.3078   44.0348 C.3       2 GLC5        0.0000 
     57 CA         44.1170   11.5060   42.4510 C.3       4 GLP5        0.0000 
     58 CA         41.1660   11.3882   45.2527 C.3       2 GLC5        0.0000 
     59 CA         40.7520    9.6670   44.8870 C.3       4 GLP5        0.0000 
     60 CA         38.9160   13.1130   45.9454 C.3       2 GLC5        0.0000 
     61 CA         37.2820   12.3280   46.1510 C.3       4 GLP5        0.0000 
@<TRIPOS>BOND
@<TRIPOS>SUBSTRUCTURE
     1 ALC1       39 GROUP        1 X    ALC  0     ROOT ALC X 1
     2 GLC5        1 GROUP        1 X    GLC  0     **** GLC X 6
     3 ALP1       41 GROUP        1 Y    ALP  0     ROOT ALP Y 8
     4 GLP5        3 GROUP        1 Y    GLP  0     **** GLP Y 13
     5 ALL1       40 GROUP        1 Z    ALL  0     ROOT ALL Z 15
     6 GLL5        2 GROUP        1 Z    GLL  0     **** GLL Z 20
@<TRIPOS>SET

