#    Name: 1yrs_L47_2_ligand
#    Modification time : Tue Mar 25 11:14:36 2014

@<TRIPOS>MOLECULE
1yrs_L47_2_ligand
   37    39     1     0     0
SMALL
NO_CHARGES


@<TRIPOS>ATOM
      1 C1         37.9680   17.1950   54.0850 C.ar      1 L47603      0.0000 
      2 C2         38.9890   16.9640   53.0990 C.ar      1 L47603      0.0000 
      3 C3         38.7810   15.8830   52.1520 C.ar      1 L47603      0.0000 
      4 C4         37.5560   15.0730   52.2310 C.ar      1 L47603      0.0000 
      5 C5         36.5180   15.3090   53.1990 C.ar      1 L47603      0.0000 
      6 C6         36.7520   16.3870   54.1200 C.ar      1 L47603      0.0000 
      7 C11        39.8270   15.6420   51.1510 C.2       1 L47603      0.0000 
      8 N12        40.9290   16.4060   50.8200 N.2       1 L47603      0.0000 
      9 N13        41.7000   15.9220   49.8990 N.am      1 L47603      0.0000 
     10 C14        41.1010   14.6810   49.2970 C.3       1 L47603      0.0000 
     11 C15        40.1280   14.4070   50.3590 C.3       1 L47603      0.0000 
     12 C18        41.0760   14.1320   47.9180 C.ar      1 L47603      0.0000 
     13 C20        42.9400   16.4590   49.5630 C.2       1 L47603      0.0000 
     14 C21        44.0660   15.4240   49.4330 C.3       1 L47603      0.0000 
     15 O25        43.2100   17.6600   49.4340 O.2       1 L47603      0.0000 
     16 C26        40.0400   14.6090   47.0200 C.ar      1 L47603      0.0000 
     17 C27        40.0200   14.2530   45.6170 C.ar      1 L47603      0.0000 
     18 C28        41.0700   13.3650   45.1610 C.ar      1 L47603      0.0000 
     19 C29        42.0900   12.8540   46.0760 C.ar      1 L47603      0.0000 
     20 C30        42.1010   13.2220   47.4730 C.ar      1 L47603      0.0000 
     21 CL35       37.3410   13.7650   51.1510 Cl        1 L47603      0.0000 
     22 O36        43.0930   12.0190   45.6010 O.3       1 L47603      0.0000 
     23 H          38.0861   17.9333   54.7757 H         1 L47603      0.0000 
     24 H          39.8108   17.5212   53.0616 H         1 L47603      0.0000 
     25 H          35.6992   14.7657   53.2279 H         1 L47603      0.0000 
     26 H          36.0451   16.6045   54.8315 H         1 L47603      0.0000 
     27 H          42.0215   13.8772   49.8436 H         1 L47603      0.0000 
     28 H          39.1915   14.0227   49.9267 H         1 L47603      0.0000 
     29 H          40.5149   13.6322   51.0385 H         1 L47603      0.0000 
     30 H          39.3037   15.2140   47.3909 H         1 L47603      0.0000 
     31 H          39.3303   14.5956   45.0052 H         1 L47603      0.0000 
     32 H          41.1036   13.0870   44.1825 H         1 L47603      0.0000 
     33 H          42.7823   12.8644   48.0948 H         1 L47603      0.0000 
     34 H          44.9372   15.8514   49.1916 H         1 L47603      0.0000 
     35 H          44.2114   14.9241   50.2868 H         1 L47603      0.0000 
     36 H          43.8667   14.7452   48.7262 H         1 L47603      0.0000 
     37 H          43.4887   11.5993   46.4179 H         1 L47603      0.0000 
@<TRIPOS>BOND
     1    2    1 ar   
     2    6    1 ar   
     3   23    1 1    
     4    3    2 ar   
     5   24    2 1    
     6    4    3 ar   
     7    7    3 1    
     8    5    4 ar   
     9   21    4 1    
    10    6    5 ar   
    11   25    5 1    
    12   26    6 1    
    13    8    7 2    
    14   11    7 1    
    15    9    8 1    
    16   10    9 1    
    17   13    9 am   
    18   11   10 1    
    19   12   10 1    
    20   27   10 1    
    21   28   11 1    
    22   29   11 1    
    23   16   12 ar   
    24   20   12 ar   
    25   14   13 1    
    26   15   13 2    
    27   34   14 1    
    28   35   14 1    
    29   36   14 1    
    30   17   16 ar   
    31   30   16 1    
    32   18   17 ar   
    33   31   17 1    
    34   19   18 ar   
    35   32   18 1    
    36   20   19 ar   
    37   22   19 1    
    38   33   20 1    
    39   37   22 1    
@<TRIPOS>SUBSTRUCTURE
     1 L47603      1 GROUP   
@<TRIPOS>SET

