#    Name: 3vf8_0JE_1_INTS_M
#    Modification time : Tue Mar 25 00:46:15 2014

@<TRIPOS>MOLECULE
3vf8_0JE_1_INTS_M
   46     0     6     0     0
SMALL
NO_CHARGES


@<TRIPOS>ATOM
      1 CA          2.2745   -1.8370  -12.1555 C.3       2 GLC5        0.0000 
      2 CA          3.5420   -1.2640  -13.8740 C.3       6 GLL5        0.0000 
      3 CA          1.0070   -2.4100  -10.4370 C.3       4 GLP5        0.0000 
      4 CA         -3.3005   -2.9780  -15.6490 C.3       2 GLC5        0.0000 
      5 CA         -3.4030   -0.8210  -15.5420 C.3       6 GLL5        0.0000 
      6 CA         -3.1980   -5.1350  -15.7560 C.3       4 GLP5        0.0000 
      7 N          -5.5855    3.5495  -15.2600 N.am      1 SEC2        0.0000 
      8 N          -4.8560    2.8660  -14.3390 N.am      5 SEL2        0.0000 
      9 N          -6.3150    4.2330  -16.1810 N.am      3 SEP2        0.0000 
     10 CA         -2.6965    2.1690  -10.6610 C.3       2 GLC5        0.0000 
     11 CA         -1.8470    2.5140  -12.4070 C.3       6 GLL5        0.0000 
     12 CA         -3.5460    1.8240   -8.9150 C.3       4 GLP5        0.0000 
     13 CA          0.8605    2.9965  -14.6420 C.3       2 GLC5        0.0000 
     14 CA         -0.6280    2.9530  -13.2200 C.3       6 GLL5        0.0000 
     15 CA          2.3490    3.0400  -16.0640 C.3       4 GLP5        0.0000 
     16 CA         -0.9585    2.9730  -15.3545 C.3       2 GLC5        0.0000 
     17 CA         -1.2890    2.9930  -17.4890 C.3       4 GLP5        0.0000 
     18 CA         -4.2725    5.1795  -15.4980 C.3       2 GLC5        0.0000 
     19 CA         -2.9330    5.3950  -13.8240 C.3       6 GLL5        0.0000 
     20 CA         -5.6120    4.9640  -17.1720 C.3       4 GLP5        0.0000 
     21 CA          2.1327   -0.7125  -16.2450 C.3       2 GLC5        0.0000 
     22 CA          2.2550   -2.5230  -15.4210 C.3       6 GLL5        0.0000 
     23 CA          1.4970   -0.4660  -18.4770 C.3       4 GLP5        0.0000 
     24 CA         -0.5465   -4.0740  -15.8908 C.3       2 GLC5        0.0000 
     25 CA          1.0200   -2.7800  -16.0330 C.3       6 GLL5        0.0000 
     26 CA         -1.5510   -5.7430  -15.9280 C.3       4 GLP5        0.0000 
     27 CA          2.6865    0.1320  -15.3942 C.3       2 GLC5        0.0000 
     28 CA          2.3540   -1.5140  -14.4610 C.3       6 GLL5        0.0000 
     29 CA          2.4250    1.6530  -16.6210 C.3       4 GLP5        0.0000 
     30 CA          1.5205    0.3758  -15.5130 C.3       2 GLC5        0.0000 
     31 CA          0.0010   -1.0360  -14.7060 C.3       6 GLL5        0.0000 
     32 CA          0.3294   -1.7841  -12.9196 C.3       2 GLC5        0.0000 
     33 CA         -0.2380   -2.4800  -11.3450 C.3       4 GLP5        0.0000 
     34 CA          0.4479   -3.4604  -14.2048 C.3       2 GLC5        0.0000 
     35 CA         -0.1040   -2.0300  -15.6740 C.3       6 GLL5        0.0000 
     36 CA          0.1290   -4.5800  -12.7090 C.3       4 GLP5        0.0000 
     37 CA         -4.6990   -1.4865  -14.3000 C.3       2 GLC5        0.0000 
     38 CA         -5.6650   -2.6650  -13.3860 C.3       4 GLP5        0.0000 
     39 CA         -3.6645    0.9385  -16.3400 C.3       2 GLC5        0.0000 
     40 CA         -4.0630    0.2050  -14.8860 C.3       6 GLL5        0.0000 
     41 CA         -3.5960    2.1850  -17.4660 C.3       4 GLP5        0.0000 
     42 CA         -4.1030    6.6312  -13.5602 C.3       2 GLC5        0.0000 
     43 CA         -3.3850    4.4800  -12.6830 C.3       6 GLL5        0.0000 
     44 CA         -5.0470    8.3250  -13.8670 C.3       4 GLP5        0.0000 
     45 CA          1.0942   -1.0436  -16.7649 C.3       2 GLC5        0.0000 
     46 CA          1.2310   -0.7670  -14.1040 C.3       6 GLL5        0.0000 
@<TRIPOS>BOND
@<TRIPOS>SUBSTRUCTURE
     1 SEC2        7 GROUP        1 X    SEC  0     ROOT SEC X 2
     2 GLC5        1 GROUP        1 X    GLC  0     **** GLC X 6
     3 SEP2        9 GROUP        1 Y    SEP  0     ROOT SEP Y 9
     4 GLP5        3 GROUP        1 Y    GLP  0     **** GLP Y 13
     5 SEL2        8 GROUP        1 Z    SEL  0     ROOT SEL Z 16
     6 GLL5        2 GROUP        1 Z    GLL  0     **** GLL Z 20
@<TRIPOS>SET

