#    Name: 3vf8_0JE_1_ligand
#    Modification time : Tue Mar 25 00:46:15 2014

@<TRIPOS>MOLECULE
3vf8_0JE_1_ligand
   47    49     1     0     0
SMALL
NO_CHARGES


@<TRIPOS>ATOM
      1 CAZ         4.5720   -5.0060  -16.7650 C.3       1 0JE701      0.0000 
      2 CAY         3.2220   -4.5530  -16.2050 C.3       1 0JE701      0.0000 
      3 OAX         3.3930   -3.1970  -15.7650 O.3       1 0JE701      0.0000 
      4 CAB         2.2550   -2.5230  -15.4210 C.ar      1 0JE701      0.0000 
      5 CAC         1.0200   -2.7800  -16.0330 C.ar      1 0JE701      0.0000 
      6 CAA         2.3540   -1.5140  -14.4610 C.ar      1 0JE701      0.0000 
      7 FAW         3.5420   -1.2640  -13.8740 F         1 0JE701      0.0000 
      8 CAD         1.2310   -0.7670  -14.1040 C.ar      1 0JE701      0.0000 
      9 CAH         0.0010   -1.0360  -14.7060 C.ar      1 0JE701      0.0000 
     10 NAG        -1.2060   -0.5050  -14.5580 N.pl3     1 0JE701      0.0000 
     11 CAI        -0.1040   -2.0300  -15.6740 C.ar      1 0JE701      0.0000 
     12 NAE        -1.3730   -2.0450  -16.0760 N.2       1 0JE701      0.0000 
     13 CAF        -2.0470   -1.1150  -15.3930 C.2       1 0JE701      0.0000 
     14 CAJ        -3.4030   -0.8210  -15.5420 C.2       1 0JE701      0.0000 
     15 NAK        -4.3120   -1.4190  -16.3090 N.pl3     1 0JE701      0.0000 
     16 NAL        -5.4060   -0.8530  -16.1720 N.2       1 0JE701      0.0000 
     17 CAM        -5.3230    0.1700  -15.3100 C.2       1 0JE701      0.0000 
     18 CAN        -4.0630    0.2050  -14.8860 C.2       1 0JE701      0.0000 
     19 NAO        -3.4790    1.0910  -14.0620 N.am      1 0JE701      0.0000 
     20 CAP        -3.8440    2.3670  -13.8430 C.2       1 0JE701      0.0000 
     21 OAR        -4.8560    2.8660  -14.3390 O.2       1 0JE701      0.0000 
     22 NAQ        -3.0630    3.0810  -13.0180 N.am      1 0JE701      0.0000 
     23 CAU        -1.8470    2.5140  -12.4070 C.3       1 0JE701      0.0000 
     24 CAV        -0.6280    2.9530  -13.2200 C.3       1 0JE701      0.0000 
     25 CAS        -3.3850    4.4800  -12.6830 C.3       1 0JE701      0.0000 
     26 CAT        -2.9330    5.3950  -13.8240 C.3       1 0JE701      0.0000 
     27 H           2.9579   -5.2130  -15.3887 H         1 0JE701      0.0000 
     28 H           2.4864   -4.6323  -16.9951 H         1 0JE701      0.0000 
     29 H           0.9432   -3.5157  -16.7411 H         1 0JE701      0.0000 
     30 H           1.3088   -0.0239  -13.4027 H         1 0JE701      0.0000 
     31 H          -1.4422    0.2127  -13.9415 H         1 0JE701      0.0000 
     32 H          -4.0922   -2.2018  -16.8882 H         1 0JE701      0.0000 
     33 H          -6.0362    0.7578  -15.0535 H         1 0JE701      0.0000 
     34 H          -2.6066    0.7344  -13.5050 H         1 0JE701      0.0000 
     35 H          -1.8876    1.4274  -12.4045 H         1 0JE701      0.0000 
     36 H          -1.7274    2.8686  -11.3861 H         1 0JE701      0.0000 
     37 H          -2.8729    4.7861  -11.7721 H         1 0JE701      0.0000 
     38 H          -4.4576    4.6062  -12.5441 H         1 0JE701      0.0000 
     39 H           5.2934   -4.9653  -16.0736 H         1 0JE701      0.0000 
     40 H           4.5384   -5.9481  -17.0985 H         1 0JE701      0.0000 
     41 H           4.8672   -4.4344  -17.5306 H         1 0JE701      0.0000 
     42 H           0.2226    2.5905  -12.8391 H         1 0JE701      0.0000 
     43 H          -0.6815    2.6397  -14.1682 H         1 0JE701      0.0000 
     44 H          -0.5371    3.9486  -13.2449 H         1 0JE701      0.0000 
     45 H          -1.9475    5.3328  -13.9817 H         1 0JE701      0.0000 
     46 H          -3.3831    5.1633  -14.6864 H         1 0JE701      0.0000 
     47 H          -3.1395    6.3549  -13.6343 H         1 0JE701      0.0000 
@<TRIPOS>BOND
     1    2    1 1    
     2   39    1 1    
     3   40    1 1    
     4   41    1 1    
     5    3    2 1    
     6   27    2 1    
     7   28    2 1    
     8    4    3 1    
     9    5    4 ar   
    10    6    4 ar   
    11   11    5 ar   
    12   29    5 1    
    13    7    6 1    
    14    8    6 ar   
    15    9    8 ar   
    16   30    8 1    
    17   10    9 1    
    18   11    9 ar   
    19   13   10 1    
    20   31   10 1    
    21   12   11 1    
    22   13   12 2    
    23   14   13 1    
    24   15   14 1    
    25   18   14 2    
    26   16   15 1    
    27   32   15 1    
    28   17   16 2    
    29   18   17 1    
    30   33   17 1    
    31   19   18 1    
    32   20   19 am   
    33   34   19 1    
    34   21   20 2    
    35   22   20 am   
    36   23   22 1    
    37   25   22 1    
    38   24   23 1    
    39   35   23 1    
    40   36   23 1    
    41   42   24 1    
    42   43   24 1    
    43   44   24 1    
    44   26   25 1    
    45   37   25 1    
    46   38   25 1    
    47   45   26 1    
    48   46   26 1    
    49   47   26 1    
@<TRIPOS>SUBSTRUCTURE
     1 0JE701      1 GROUP   
@<TRIPOS>SET

