#    Name: 1k2u_TFM_2_INTS_M
#    Modification time : Tue Mar 25 09:36:01 2014

@<TRIPOS>MOLECULE
1k2u_TFM_2_INTS_M
   35     0     6     0     0
SMALL
NO_CHARGES


@<TRIPOS>ATOM
      1 O          10.0715   -2.6680   59.2655 O.2       1 ALC1        0.0000 
      2 O          10.8240   -1.5980   58.6620 O.2       5 ALL1        0.0000 
      3 O           9.3190   -3.7380   59.8690 O.2       3 ALP1        0.0000 
      4 O          12.2725   -1.5390   57.7175 O.2       1 ALC1        0.0000 
      5 O          13.7210   -1.4800   56.7730 O.2       3 ALP1        0.0000 
      6 O          11.4325   -2.2450   57.6465 O.2       1 ALC1        0.0000 
      7 O          12.0410   -2.8920   56.6310 O.2       3 ALP1        0.0000 
      8 CA         12.5420   -0.6875   61.9940 C.3       2 GLC5        0.0000 
      9 CA         11.3510    0.7570   61.9640 C.3       6 GLL5        0.0000 
     10 CA         13.7330   -2.1320   62.0240 C.3       4 GLP5        0.0000 
     11 CA         12.7365    3.2015   61.9760 C.3       2 GLC5        0.0000 
     12 CA         11.1110    2.2240   62.3390 C.3       6 GLL5        0.0000 
     13 CA         14.3620    4.1790   61.6130 C.3       4 GLP5        0.0000 
     14 CA         10.6570    3.7615   63.0300 C.3       2 GLC5        0.0000 
     15 CA         10.2030    5.2990   63.7210 C.3       4 GLP5        0.0000 
     16 CA         14.4200    5.5450   54.9475 C.3       2 GLC5        0.0000 
     17 CA         14.7900    5.4000   56.6550 C.3       6 GLL5        0.0000 
     18 CA         14.0500    5.6900   53.2400 C.3       4 GLP5        0.0000 
     19 CA         13.8150    7.6695   59.4565 C.3       2 GLC5        0.0000 
     20 CA         14.2840    6.0160   58.7490 C.3       6 GLL5        0.0000 
     21 CA         13.3460    9.3230   60.1640 C.3       4 GLP5        0.0000 
     22 CA         11.6505   -1.4693   61.1017 C.3       2 GLC5        0.0000 
     23 CA         10.3480    0.3220   60.5240 C.3       6 GLL5        0.0000 
     24 CA         12.4650   -2.8220   62.3000 C.3       4 GLP5        0.0000 
     25 CA          9.5248   -0.4467   62.5760 C.3       2 GLC5        0.0000 
     26 CA          8.2000   -1.4330   63.9080 C.3       4 GLP5        0.0000 
     27 CA         13.5285    2.9538   60.1793 C.3       2 GLC5        0.0000 
     28 CA         13.0940    1.1340   58.7510 C.3       6 GLL5        0.0000 
     29 CA         13.9767    3.9050   59.9887 C.3       2 GLC5        0.0000 
     30 CA         12.8920    3.5820   58.4910 C.3       6 GLL5        0.0000 
     31 CA         14.5777    3.0178   59.9922 C.3       2 GLC5        0.0000 
     32 CA         15.0940    2.4920   58.2460 C.3       6 GLL5        0.0000 
     33 CA         10.8360    1.2033   64.0083 C.3       2 GLC5        0.0000 
     34 CA         10.4410    0.9160   65.8650 C.3       4 GLP5        0.0000 
     35 CA         14.6513    4.8584   60.0294 C.3       2 GLC5        0.0000 
@<TRIPOS>BOND
@<TRIPOS>SUBSTRUCTURE
     1 ALC1        1 GROUP        1 X    ALC  0     ROOT ALC X 1
     2 GLC5        8 GROUP        1 X    GLC  0     **** GLC X 6
     3 ALP1        3 GROUP        1 Y    ALP  0     ROOT ALP Y 8
     4 GLP5       10 GROUP        1 Y    GLP  0     **** GLP Y 13
     5 ALL1        2 GROUP        1 Z    ALL  0     ROOT ALL Z 15
     6 GLL5        9 GROUP        1 Z    GLL  0     **** GLL Z 20
@<TRIPOS>SET

