#    Name: 1k2u_TFM_2_ligand
#    Modification time : Tue Mar 25 09:36:01 2014

@<TRIPOS>MOLECULE
1k2u_TFM_2_ligand
   28    28     1     0     0
SMALL
NO_CHARGES


@<TRIPOS>ATOM
      1 N1         10.8240   -1.5980   58.6620 N.pl3     1 TFM2820     0.0000 
      2 C          11.3240   -0.5550   59.2830 C.2       1 TFM2820     0.0000 
      3 S          10.3480    0.3220   60.5240 S.3       1 TFM2820     0.0000 
      4 N2         12.5530   -0.1630   59.0100 N.pl3     1 TFM2820     0.0000 
      5 C1         13.0940    1.1340   58.7510 C.ar      1 TFM2820     0.0000 
      6 C2         12.2960    2.3230   58.7400 C.ar      1 TFM2820     0.0000 
      7 C3         12.8920    3.5820   58.4910 C.ar      1 TFM2820     0.0000 
      8 C4         14.2910    3.6800   58.2380 C.ar      1 TFM2820     0.0000 
      9 C5         15.0940    2.4920   58.2460 C.ar      1 TFM2820     0.0000 
     10 C6         14.4930    1.2210   58.4970 C.ar      1 TFM2820     0.0000 
     11 C1'        11.3510    0.7570   61.9640 C.3       1 TFM2820     0.0000 
     12 C2'        11.1110    2.2240   62.3390 C.3       1 TFM2820     0.0000 
     13 CM         14.9260    5.0710   57.9770 C.3       1 TFM2820     0.0000 
     14 F1         16.2680    5.0480   58.3080 F         1 TFM2820     0.0000 
     15 F2         14.7900    5.4000   56.6550 F         1 TFM2820     0.0000 
     16 F3         14.2840    6.0160   58.7490 F         1 TFM2820     0.0000 
     17 H           9.9133   -1.8895   58.9546 H         1 TFM2820     0.0000 
     18 H          11.3995   -2.0057   57.9531 H         1 TFM2820     0.0000 
     19 H          13.3356   -0.9563   58.9649 H         1 TFM2820     0.0000 
     20 H          11.2933    2.2542   58.9134 H         1 TFM2820     0.0000 
     21 H          12.3200    4.4280   58.4916 H         1 TFM2820     0.0000 
     22 H          16.0930    2.5573   58.0724 H         1 TFM2820     0.0000 
     23 H          15.0640    0.3808   58.4941 H         1 TFM2820     0.0000 
     24 H          12.3369    0.5623   61.6278 H         1 TFM2820     0.0000 
     25 H          11.0127    0.0720   62.6983 H         1 TFM2820     0.0000 
     26 H          11.6506    2.4968   63.1355 H         1 TFM2820     0.0000 
     27 H          11.3563    2.8430   61.5929 H         1 TFM2820     0.0000 
     28 H          10.1517    2.3984   62.5612 H         1 TFM2820     0.0000 
@<TRIPOS>BOND
     1    2    1 2    
     2   17    1 1    
     3   18    1 1    
     4    3    2 1    
     5    4    2 1    
     6   11    3 1    
     7    5    4 1    
     8   19    4 1    
     9    6    5 ar   
    10   10    5 ar   
    11    7    6 ar   
    12   20    6 1    
    13    8    7 ar   
    14   21    7 1    
    15    9    8 ar   
    16   13    8 1    
    17   10    9 ar   
    18   22    9 1    
    19   23   10 1    
    20   12   11 1    
    21   24   11 1    
    22   25   11 1    
    23   26   12 1    
    24   27   12 1    
    25   28   12 1    
    26   14   13 1    
    27   15   13 1    
    28   16   13 1    
@<TRIPOS>SUBSTRUCTURE
     1 TFM2820     1 GROUP   
@<TRIPOS>SET

