#    Name: 3g7e_B46_1_INTS_M
#    Modification time : Tue Mar 25 07:18:04 2014

@<TRIPOS>MOLECULE
3g7e_B46_1_INTS_M
   78     0     6     0     0
SMALL
NO_CHARGES


@<TRIPOS>ATOM
      1 N          39.5390   11.9225   18.8455 N.am      1 SEC2        0.0000 
      2 N          39.2870   13.4220   18.6940 N.am      5 SEL2        0.0000 
      3 N          39.7910   10.4230   18.9970 N.am      3 SEP2        0.0000 
      4 CA         37.0550   12.2950   19.4235 C.3       2 GLC5        0.0000 
      5 CA         36.7140   13.9890   19.4510 C.3       6 GLL5        0.0000 
      6 CA         37.3960   10.6010   19.3960 C.3       4 GLP5        0.0000 
      7 CA         35.0750   13.1625   20.0035 C.3       2 GLC5        0.0000 
      8 CA         33.4360   12.3360   20.5560 C.3       4 GLP5        0.0000 
      9 CA         37.5180   12.1610   20.6135 C.3       2 GLC5        0.0000 
     10 CA         37.6400   13.7210   21.8310 C.3       6 GLL5        0.0000 
     11 CA         36.1920   14.5645   25.6570 C.3       2 GLC5        0.0000 
     12 CA         37.7410   15.1690   25.7450 C.3       6 GLL5        0.0000 
     13 CA         34.6430   13.9600   25.5690 C.3       4 GLP5        0.0000 
     14 CA         37.7325   17.3835   25.5705 C.3       2 GLC5        0.0000 
     15 CA         37.7240   19.5980   25.3960 C.3       4 GLP5        0.0000 
     16 CA         39.2470   16.2885   25.2405 C.3       2 GLC5        0.0000 
     17 CA         40.7530   17.4080   24.7360 C.3       4 GLP5        0.0000 
     18 CA         43.0250   10.9180   22.7460 C.3       2 GLC5        0.0000 
     19 CA         41.1190   10.4710   23.3510 C.3       6 GLL5        0.0000 
     20 CA         44.9310   11.3650   22.1410 C.3       4 GLP5        0.0000 
     21 CA         38.0435   10.2440   21.1120 C.3       2 GLC5        0.0000 
     22 CA         38.6910    9.8870   22.8280 C.3       6 GLL5        0.0000 
     23 CA         37.5185   15.8775   31.0660 C.3       2 GLC5        0.0000 
     24 CA         39.4490   15.2720   30.8700 C.3       6 GLL5        0.0000 
     25 CA         35.5880   16.4830   31.2620 C.3       4 GLP5        0.0000 
     26 CA         41.0680   16.0065   31.8545 C.3       2 GLC5        0.0000 
     27 CA         42.6870   16.7410   32.8390 C.3       4 GLP5        0.0000 
     28 N          39.3880   17.4990   29.7030 N.am      1 SEC2        0.0000 
     29 N          38.9460   16.1580   29.9840 N.am      5 SEL2        0.0000 
     30 N          39.8300   18.8400   29.4220 N.am      3 SEP2        0.0000 
     31 CA         37.3010   16.8600   28.9380 C.3       2 GLC5        0.0000 
     32 CA         38.7120   15.8410   28.6990 C.3       6 GLL5        0.0000 
     33 CA         35.8900   17.8790   29.1770 C.3       4 GLP5        0.0000 
     34 CA         40.8595   15.4715   19.1270 C.3       2 GLC5        0.0000 
     35 CA         40.9130   14.9160   17.1580 C.3       6 GLL5        0.0000 
     36 CA         40.8060   16.0270   21.0960 C.3       4 GLP5        0.0000 
     37 CA         41.8760   13.9550   18.8715 C.3       2 GLC5        0.0000 
     38 CA         42.8390   12.9940   20.5850 C.3       4 GLP5        0.0000 
     39 CA         41.8265   13.1445   17.0100 C.3       2 GLC5        0.0000 
     40 CA         42.7400   11.3730   16.8620 C.3       4 GLP5        0.0000 
     41 CA         41.1180   17.1270   17.5160 C.3       2 GLC5        0.0000 
     42 CA         41.3230   19.3380   17.8740 C.3       4 GLP5        0.0000 
     43 CA         38.7825   14.1905   15.3275 C.3       2 GLC5        0.0000 
     44 CA         40.8220   14.6560   15.7090 C.3       6 GLL5        0.0000 
     45 CA         36.7430   13.7250   14.9460 C.3       4 GLP5        0.0000 
     46 CA         39.3510   13.4660   13.8355 C.3       2 GLC5        0.0000 
     47 CA         40.7500   14.4480   14.5600 C.3       6 GLL5        0.0000 
     48 CA         37.9520   12.4840   13.1110 C.3       4 GLP5        0.0000 
     49 CA         42.6445   14.8330   14.7975 C.3       2 GLC5        0.0000 
     50 CA         44.5390   15.2180   15.0350 C.3       4 GLP5        0.0000 
     51 CA         41.7540   15.3575   13.2165 C.3       2 GLC5        0.0000 
     52 CA         42.7580   16.2670   11.8730 C.3       4 GLP5        0.0000 
     53 CA         38.9295   15.1655   22.4870 C.3       2 GLC5        0.0000 
     54 CA         40.3530   16.3050   22.5160 C.3       4 GLP5        0.0000 
     55 CA         39.3762   14.9328   23.5748 C.3       2 GLC5        0.0000 
     56 CA         37.9890   14.0790   24.4110 C.3       6 GLL5        0.0000 
     57 CA         36.4441   13.7918   24.9355 C.3       2 GLC5        0.0000 
     58 CA         37.3720   14.3310   23.0850 C.3       6 GLL5        0.0000 
     59 CA         42.5637   10.7620   25.2105 C.3       2 GLC5        0.0000 
     60 CA         40.5980   11.4650   24.4190 C.3       6 GLL5        0.0000 
     61 CA         44.2690   10.5560   26.5360 C.3       4 GLP5        0.0000 
     62 CA         36.8113    9.4110   23.8143 C.3       2 GLC5        0.0000 
     63 CA         38.2500   10.8470   23.9590 C.3       6 GLL5        0.0000 
     64 CA         35.1520    8.4550   24.2350 C.3       4 GLP5        0.0000 
     65 CA         40.3803   15.6733   27.7970 C.3       2 GLC5        0.0000 
     66 CA         38.9930   14.5300   28.2150 C.3       6 GLL5        0.0000 
     67 CA         41.9080   16.1610   27.1370 C.3       4 GLP5        0.0000 
     68 CA         41.1243   13.7725   31.6680 C.3       2 GLC5        0.0000 
     69 CA         39.7540   13.9580   30.4700 C.3       6 GLL5        0.0000 
     70 CA         42.6470   12.9300   32.6660 C.3       4 GLP5        0.0000 
     71 CA         40.9844   15.3474   29.4479 C.3       2 GLC5        0.0000 
     72 CA         42.4240   16.1760   28.5610 C.3       4 GLP5        0.0000 
     73 CA         42.5528   14.9250   16.6092 C.3       2 GLC5        0.0000 
     74 CA         44.2380   15.0640   16.7850 C.3       4 GLP5        0.0000 
     75 CA         41.3805   12.7815   15.3652 C.3       2 GLC5        0.0000 
     76 CA         41.9750   11.0110   15.5960 C.3       4 GLP5        0.0000 
     77 CA         40.2855   16.2835   14.3947 C.3       2 GLC5        0.0000 
     78 CA         39.7850   18.0150   13.6550 C.3       4 GLP5        0.0000 
@<TRIPOS>BOND
@<TRIPOS>SUBSTRUCTURE
     1 SEC2        1 GROUP        1 X    SEC  0     ROOT SEC X 2
     2 GLC5        4 GROUP        1 X    GLC  0     **** GLC X 6
     3 SEP2        3 GROUP        1 Y    SEP  0     ROOT SEP Y 9
     4 GLP5        6 GROUP        1 Y    GLP  0     **** GLP Y 13
     5 SEL2        2 GROUP        1 Z    SEL  0     ROOT SEL Z 16
     6 GLL5        5 GROUP        1 Z    GLL  0     **** GLL Z 20
@<TRIPOS>SET

