#    Name: 3g7e_B46_1_ligand
#    Modification time : Tue Mar 25 07:18:04 2014

@<TRIPOS>MOLECULE
3g7e_B46_1_ligand
   51    54     1     0     0
SMALL
NO_CHARGES


@<TRIPOS>ATOM
      1 O1         39.2870   13.4220   18.6940 O.2       1 B461        0.0000 
      2 C2         38.8520   14.5270   18.3580 C.2       1 B461        0.0000 
      3 N3         37.5860   14.8980   18.6890 N.am      1 B461        0.0000 
      4 C4         36.7140   13.9890   19.4510 C.3       1 B461        0.0000 
      5 C5         36.8050   14.3040   20.9200 C.2       1 B461        0.0000 
      6 C6         37.6400   13.7210   21.8310 C.2       1 B461        0.0000 
      7 C7         37.3720   14.3310   23.0850 C.2       1 B461        0.0000 
      8 N8         36.4200   15.2280   22.8950 N.pl3     1 B461        0.0000 
      9 N9         36.0570   15.2240   21.5580 N.2       1 B461        0.0000 
     10 C11        37.9890   14.0790   24.4110 C.2       1 B461        0.0000 
     11 S12        37.7410   15.1690   25.7450 S.3       1 B461        0.0000 
     12 C13        38.7290   14.1920   26.7940 C.2       1 B461        0.0000 
     13 N14        39.1720   13.1550   26.1310 N.2       1 B461        0.0000 
     14 C15        38.8100   13.0420   24.8560 C.2       1 B461        0.0000 
     15 N16        39.2390   11.9580   24.0400 N.3       1 B461        0.0000 
     16 C17        40.5980   11.4650   24.4190 C.3       1 B461        0.0000 
     17 C18        41.1190   10.4710   23.3510 C.3       1 B461        0.0000 
     18 C19        40.1000    9.3250   23.1510 C.3       1 B461        0.0000 
     19 C20        38.6910    9.8870   22.8280 C.3       1 B461        0.0000 
     20 C21        38.2500   10.8470   23.9590 C.3       1 B461        0.0000 
     21 C22        38.9930   14.5300   28.2150 C.ar      1 B461        0.0000 
     22 C23        39.5270   13.5730   29.1290 C.ar      1 B461        0.0000 
     23 C24        39.7540   13.9580   30.4700 C.ar      1 B461        0.0000 
     24 C25        39.4490   15.2720   30.8700 C.ar      1 B461        0.0000 
     25 N26        38.9460   16.1580   29.9840 N.ar      1 B461        0.0000 
     26 C27        38.7120   15.8410   28.6990 C.ar      1 B461        0.0000 
     27 O28        39.6260   15.3900   17.6560 O.3       1 B461        0.0000 
     28 C29        40.9130   14.9160   17.1580 C.3       1 B461        0.0000 
     29 C30        40.8220   14.6560   15.7090 C.1       1 B461        0.0000 
     30 C31        40.7500   14.4480   14.5600 C.1       1 B461        0.0000 
     31 H          37.1903   15.8072   18.4287 H         1 B461        0.0000 
     32 H          37.0149   12.9500   19.2902 H         1 B461        0.0000 
     33 H          35.6753   14.0983   19.1270 H         1 B461        0.0000 
     34 H          38.2773   13.0467   21.6878 H         1 B461        0.0000 
     35 H          36.0180   15.8096   23.5565 H         1 B461        0.0000 
     36 H          40.5628   10.9502   25.3757 H         1 B461        0.0000 
     37 H          41.2986   12.2935   24.4845 H         1 B461        0.0000 
     38 H          42.0606   10.0562   23.6827 H         1 B461        0.0000 
     39 H          41.2535   10.9952   22.4151 H         1 B461        0.0000 
     40 H          40.0450    8.7347   24.0591 H         1 B461        0.0000 
     41 H          40.4266    8.6972   22.3291 H         1 B461        0.0000 
     42 H          37.9911    9.0701   22.7614 H         1 B461        0.0000 
     43 H          38.7311   10.4284   21.8969 H         1 B461        0.0000 
     44 H          37.2670   11.2263   23.7205 H         1 B461        0.0000 
     45 H          38.2210   10.2921   24.8854 H         1 B461        0.0000 
     46 H          39.7379   12.6347   28.8160 H         1 B461        0.0000 
     47 H          40.1337   13.2904   31.1362 H         1 B461        0.0000 
     48 H          39.6206   15.5369   31.8566 H         1 B461        0.0000 
     49 H          38.3261   16.5273   28.0284 H         1 B461        0.0000 
     50 H          41.2045   13.9945   17.6788 H         1 B461        0.0000 
     51 H          41.6921   15.6657   17.3483 H         1 B461        0.0000 
@<TRIPOS>BOND
     1    2    1 2    
     2    3    2 am   
     3   27    2 1    
     4    4    3 1    
     5   31    3 1    
     6    5    4 1    
     7   32    4 1    
     8   33    4 1    
     9    6    5 1    
    10    9    5 2    
    11    7    6 2    
    12   34    6 1    
    13    8    7 1    
    14   10    7 1    
    15    9    8 1    
    16   35    8 1    
    17   11   10 1    
    18   14   10 2    
    19   12   11 1    
    20   13   12 2    
    21   21   12 1    
    22   14   13 1    
    23   15   14 1    
    24   16   15 1    
    25   20   15 1    
    26   17   16 1    
    27   36   16 1    
    28   37   16 1    
    29   18   17 1    
    30   38   17 1    
    31   39   17 1    
    32   19   18 1    
    33   40   18 1    
    34   41   18 1    
    35   20   19 1    
    36   42   19 1    
    37   43   19 1    
    38   44   20 1    
    39   45   20 1    
    40   22   21 ar   
    41   26   21 ar   
    42   23   22 ar   
    43   46   22 1    
    44   24   23 ar   
    45   47   23 1    
    46   25   24 ar   
    47   48   24 1    
    48   26   25 ar   
    49   49   26 1    
    50   28   27 1    
    51   29   28 1    
    52   50   28 1    
    53   51   28 1    
    54   30   29 3    
@<TRIPOS>SUBSTRUCTURE
     1 B461        1 GROUP   
@<TRIPOS>SET

