#    Name: 2g1q_N9H_2_INTS_M
#    Modification time : Tue Mar 25 13:24:13 2014

@<TRIPOS>MOLECULE
2g1q_N9H_2_INTS_M
   67     0     6     0     0
SMALL
NO_CHARGES


@<TRIPOS>ATOM
      1 CA         39.1365   18.8035   53.1745 C.3       2 GLC5        0.0000 
      2 CA         38.1510   17.0080   52.4050 C.3       6 GLL5        0.0000 
      3 CA         40.1220   20.5990   53.9440 C.3       4 GLP5        0.0000 
      4 CA         35.2215   13.1265   52.8495 C.3       2 GLC5        0.0000 
      5 CA         36.2060   14.7550   52.7880 C.3       6 GLL5        0.0000 
      6 CA         34.2370   11.4980   52.9110 C.3       4 GLP5        0.0000 
      7 CA         39.5420   12.9385   51.2395 C.3       2 GLC5        0.0000 
      8 CA         39.7280   14.4840   49.8890 C.3       6 GLL5        0.0000 
      9 CA         39.3560   11.3930   52.5900 C.3       4 GLP5        0.0000 
     10 CA         43.4335   12.3690   48.0225 C.3       2 GLC5        0.0000 
     11 CA         41.7850   13.3800   47.2330 C.3       6 GLL5        0.0000 
     12 CA         45.0820   11.3580   48.8120 C.3       4 GLP5        0.0000 
     13 CA         41.4150   10.9980   45.7640 C.3       2 GLC5        0.0000 
     14 CA         41.6360   12.8110   45.9220 C.3       6 GLL5        0.0000 
     15 CA         41.1940    9.1850   45.6060 C.3       4 GLP5        0.0000 
     16 CA         39.6420   12.0465   46.3225 C.3       2 GLC5        0.0000 
     17 CA         37.6480   11.2820   46.7230 C.3       4 GLP5        0.0000 
     18 CA         40.4525   11.5080   44.7605 C.3       2 GLC5        0.0000 
     19 CA         40.6050   13.3280   45.0490 C.3       6 GLL5        0.0000 
     20 CA         40.3000    9.6880   44.4720 C.3       4 GLP5        0.0000 
     21 CA         38.2460   12.6260   51.6925 C.3       2 GLC5        0.0000 
     22 CA         37.1360   13.8590   50.7950 C.3       6 GLL5        0.0000 
     23 CA         36.9585   12.5650   49.3735 C.3       2 GLC5        0.0000 
     24 CA         36.7810   11.2710   47.9520 C.3       4 GLP5        0.0000 
     25 CA         35.9920   15.2310   50.1010 C.3       2 GLC5        0.0000 
     26 CA         34.8480   16.6030   49.4070 C.3       4 GLP5        0.0000 
     27 CA         38.5955   19.3255   54.0675 C.3       2 GLC5        0.0000 
     28 CA         37.0690   18.0520   54.1910 C.3       6 GLL5        0.0000 
     29 CA         38.0435   18.4145   55.9225 C.3       2 GLC5        0.0000 
     30 CA         39.0180   18.7770   57.6540 C.3       4 GLP5        0.0000 
     31 CA         43.6865   12.9795   49.3115 C.3       2 GLC5        0.0000 
     32 CA         42.2910   14.6010   49.8110 C.3       6 GLL5        0.0000 
     33 CA         40.9410   12.6055   52.4155 C.3       2 GLC5        0.0000 
     34 CA         42.5260   13.8180   52.2410 C.3       6 GLL5        0.0000 
     35 OD1        41.4225   13.7705   54.0205 O.co2     1 ASC3        0.0000 
     36 OD1        42.9470   14.2240   53.5910 O.co2     5 ASL3        0.0000 
     37 OD1        39.8980   13.3170   54.4500 O.co2     3 ASP3        0.0000 
     38 CA         36.7500   19.4112   53.8792 C.3       2 GLC5        0.0000 
     39 CA         36.3940   21.3040   53.9610 C.3       4 GLP5        0.0000 
     40 CA         37.4090   17.2880   50.3362 C.3       2 GLC5        0.0000 
     41 CA         36.6540   18.1490   48.6810 C.3       4 GLP5        0.0000 
     42 CA         37.5300   13.2237   53.0022 C.3       2 GLC5        0.0000 
     43 CA         37.1740   14.7940   51.7510 C.3       6 GLL5        0.0000 
     44 CA         38.3700   11.6730   53.7350 C.3       4 GLP5        0.0000 
     45 CA         35.5035   13.4668   50.6895 C.3       2 GLC5        0.0000 
     46 CA         33.8520   12.6070   50.1060 C.3       4 GLP5        0.0000 
     47 CA         35.6487   15.9714   51.1779 C.3       2 GLC5        0.0000 
     48 CA         42.7585   14.4390   46.3930 C.3       2 GLC5        0.0000 
     49 CA         40.8890   14.4360   47.6650 C.3       6 GLL5        0.0000 
     50 CA         44.1800   14.9700   45.3370 C.3       4 GLP5        0.0000 
     51 CA         40.1878   14.9075   43.6325 C.3       2 GLC5        0.0000 
     52 CA         40.2050   15.9380   42.0370 C.3       4 GLP5        0.0000 
     53 CA         42.3041   14.3589   45.3916 C.3       2 GLC5        0.0000 
     54 CA         39.7360   14.4260   45.4070 C.3       6 GLL5        0.0000 
     55 CA         38.0415   15.3788   46.7458 C.3       2 GLC5        0.0000 
     56 CA         36.2700   16.0550   47.4180 C.3       4 GLP5        0.0000 
     57 CA         38.4796   13.3380   45.9050 C.3       2 GLC5        0.0000 
     58 CA         39.8900   14.9790   46.7400 C.3       6 GLL5        0.0000 
     59 CA         36.9290   12.2480   45.8260 C.3       4 GLP5        0.0000 
     60 CA         41.5497   21.5693   48.3372 C.3       2 GLC5        0.0000 
     61 CA         42.8280   19.5480   48.8260 C.3       6 GLL5        0.0000 
     62 CA         40.3670   22.9630   47.4450 C.3       4 GLP5        0.0000 
     63 CA         41.8417   20.2773   50.9543 C.3       2 GLC5        0.0000 
     64 CA         42.6370   20.8030   49.6330 C.3       6 GLL5        0.0000 
     65 CA         40.9510   20.3790   52.6790 C.3       4 GLP5        0.0000 
     66 CA         35.3438   17.5023   54.9693 C.3       2 GLC5        0.0000 
     67 CA         33.8150   17.7560   56.0850 C.3       4 GLP5        0.0000 
@<TRIPOS>BOND
@<TRIPOS>SUBSTRUCTURE
     1 ASC3       35 GROUP        1 X    ASC  0     ROOT ASC X 3
     2 GLC5        1 GROUP        1 X    GLC  0     **** GLC X 6
     3 ASP3       37 GROUP        1 Y    ASP  0     ROOT ASP Y 10
     4 GLP5        3 GROUP        1 Y    GLP  0     **** GLP Y 13
     5 ASL3       36 GROUP        1 Z    ASL  0     ROOT ASL Z 17
     6 GLL5        2 GROUP        1 Z    GLL  0     **** GLL Z 20
@<TRIPOS>SET

