#    Name: 2g1q_N9H_2_ligand
#    Modification time : Tue Mar 25 13:24:13 2014

@<TRIPOS>MOLECULE
2g1q_N9H_2_ligand
   53    55     1     0     0
SMALL
NO_CHARGES


@<TRIPOS>ATOM
      1 C1         37.1430   16.9850   53.4040 C.ar      1 N9H605      0.0000 
      2 C2         38.1510   17.0080   52.4050 C.ar      1 N9H605      0.0000 
      3 C3         38.1770   15.8460   51.5780 C.ar      1 N9H605      0.0000 
      4 C4         37.1740   14.7940   51.7510 C.ar      1 N9H605      0.0000 
      5 C5         36.2060   14.7550   52.7880 C.ar      1 N9H605      0.0000 
      6 C6         36.2090   15.9050   53.6280 C.ar      1 N9H605      0.0000 
      7 C10        39.2630   15.7290   50.5910 C.2       1 N9H605      0.0000 
      8 N1         39.8740   16.7590   50.0100 N.2       1 N9H605      0.0000 
      9 N12        40.8590   16.4320   49.1710 N.am      1 N9H605      0.0000 
     10 C13        40.9650   14.9690   49.1160 C.3       1 N9H605      0.0000 
     11 C14        39.7280   14.4840   49.8890 C.3       1 N9H605      0.0000 
     12 C17        40.8890   14.4360   47.6650 C.ar      1 N9H605      0.0000 
     13 C19        41.7850   13.3800   47.2330 C.ar      1 N9H605      0.0000 
     14 C20        41.6360   12.8110   45.9220 C.ar      1 N9H605      0.0000 
     15 C21        40.6050   13.3280   45.0490 C.ar      1 N9H605      0.0000 
     16 C22        39.7360   14.4260   45.4070 C.ar      1 N9H605      0.0000 
     17 C23        39.8900   14.9790   46.7400 C.ar      1 N9H605      0.0000 
     18 C29        41.7790   17.3840   48.6800 C.2       1 N9H605      0.0000 
     19 N30        41.7100   18.6760   49.1290 N.am      1 N9H605      0.0000 
     20 C31        42.8280   19.5480   48.8260 C.3       1 N9H605      0.0000 
     21 O39        42.5990   16.9860   47.8560 O.2       1 N9H605      0.0000 
     22 F40        37.1360   13.8590   50.7950 F         1 N9H605      0.0000 
     23 F41        37.0690   18.0520   54.1910 F         1 N9H605      0.0000 
     24 C7         42.2910   14.6010   49.8110 C.3       1 N9H605      0.0000 
     25 C8         42.5010   15.0250   51.2700 C.3       1 N9H605      0.0000 
     26 C9         42.6370   20.8030   49.6330 C.3       1 N9H605      0.0000 
     27 C11        42.5260   13.8180   52.2410 C.3       1 N9H605      0.0000 
     28 N2         42.9470   14.2240   53.5910 N.4       1 N9H605      0.0000 
     29 H          38.7728   17.7511   52.2911 H         1 N9H605      0.0000 
     30 H          35.5917   14.0077   52.9162 H         1 N9H605      0.0000 
     31 H          35.5467   15.9761   54.4005 H         1 N9H605      0.0000 
     32 H          38.9966   14.1479   49.2015 H         1 N9H605      0.0000 
     33 H          40.0216   13.7476   50.5904 H         1 N9H605      0.0000 
     34 H          42.5076   13.0508   47.8548 H         1 N9H605      0.0000 
     35 H          42.2347   12.0676   45.6133 H         1 N9H605      0.0000 
     36 H          40.4837   12.8886   44.1200 H         1 N9H605      0.0000 
     37 H          39.0676   14.7853   44.7760 H         1 N9H605      0.0000 
     38 H          39.3049   15.7470   47.0396 H         1 N9H605      0.0000 
     39 H          40.9332   19.0412   49.6500 H         1 N9H605      0.0000 
     40 H          42.8490   19.8063   47.7729 H         1 N9H605      0.0000 
     41 H          43.7698   19.0890   49.1063 H         1 N9H605      0.0000 
     42 H          43.1330   15.0172   49.1971 H         1 N9H605      0.0000 
     43 H          42.4223   13.4887   49.7436 H         1 N9H605      0.0000 
     44 H          41.6942   15.6988   51.5699 H         1 N9H605      0.0000 
     45 H          43.4482   15.5636   51.3567 H         1 N9H605      0.0000 
     46 H          43.2104   13.0696   51.8268 H         1 N9H605      0.0000 
     47 H          41.5209   13.3827   52.2596 H         1 N9H605      0.0000 
     48 H          42.6175   20.6139   50.6148 H         1 N9H605      0.0000 
     49 H          43.3732   21.4612   49.4759 H         1 N9H605      0.0000 
     50 H          41.7788   21.2635   49.4061 H         1 N9H605      0.0000 
     51 H          43.8622   14.6269   53.5892 H         1 N9H605      0.0000 
     52 H          42.3282   14.9040   53.9842 H         1 N9H605      0.0000 
     53 H          42.9694   13.4485   54.2220 H         1 N9H605      0.0000 
@<TRIPOS>BOND
     1    2    1 ar   
     2    6    1 ar   
     3   23    1 1    
     4    3    2 ar   
     5   29    2 1    
     6    4    3 ar   
     7    7    3 1    
     8    5    4 ar   
     9   22    4 1    
    10    6    5 ar   
    11   30    5 1    
    12   31    6 1    
    13    8    7 2    
    14   11    7 1    
    15    9    8 1    
    16   10    9 1    
    17   18    9 am   
    18   11   10 1    
    19   12   10 1    
    20   24   10 1    
    21   32   11 1    
    22   33   11 1    
    23   13   12 ar   
    24   17   12 ar   
    25   14   13 ar   
    26   34   13 1    
    27   15   14 ar   
    28   35   14 1    
    29   16   15 ar   
    30   36   15 1    
    31   17   16 ar   
    32   37   16 1    
    33   38   17 1    
    34   19   18 am   
    35   21   18 2    
    36   20   19 1    
    37   39   19 1    
    38   26   20 1    
    39   40   20 1    
    40   41   20 1    
    41   25   24 1    
    42   42   24 1    
    43   43   24 1    
    44   27   25 1    
    45   44   25 1    
    46   45   25 1    
    47   48   26 1    
    48   49   26 1    
    49   50   26 1    
    50   28   27 1    
    51   46   27 1    
    52   47   27 1    
    53   51   28 1    
    54   52   28 1    
    55   53   28 1    
@<TRIPOS>SUBSTRUCTURE
     1 N9H605      1 GROUP   
@<TRIPOS>SET

