#    Name: 1xq0_4TR_1_INTS_M
#    Modification time : Tue Mar 25 10:34:17 2014

@<TRIPOS>MOLECULE
1xq0_4TR_1_INTS_M
   28     0    12     0     0
SMALL
NO_CHARGES


@<TRIPOS>ATOM
      1 N          21.9860   24.7525   20.6030 N.am      2 SEC2        0.0000 
      2 N          20.5040   25.0730   20.4420 N.am     10 SEL2        0.0000 
      3 N          23.4680   24.4320   20.7640 N.am      6 SEP2        0.0000 
      4 O          21.7630   24.6485   18.1030 O.2       1 ALC1        0.0000 
      5 O          20.9650   25.6800   18.1360 O.2       9 ALL1        0.0000 
      6 O          22.5610   23.6170   18.0700 O.2       5 ALP1        0.0000 
      7 Zn         20.2090   25.5890   17.3905 Zn        3 ZIC7        0.0000 
      8 Zn         20.9650   25.6800   18.1360 Zn       11 ZIL7        0.0000 
      9 Zn         19.4530   25.4980   16.6450 Zn        7 ZIP7        0.0000 
     10 CA         23.2935   27.8430   17.4870 C.3       4 GLC5        0.0000 
     11 CA         21.7960   29.0030   18.4320 C.3      12 GLL5        0.0000 
     12 CA         24.7910   26.6830   16.5420 C.3       8 GLP5        0.0000 
     13 CA         17.9685   29.9155   22.0055 C.3       4 GLC5        0.0000 
     14 CA         19.6020   29.0080   22.0020 C.3      12 GLL5        0.0000 
     15 CA         16.3350   30.8230   22.0090 C.3       8 GLP5        0.0000 
     16 CA         19.4680   29.5430   23.7830 C.3       4 GLC5        0.0000 
     17 CA         19.3340   30.0780   25.5640 C.3       8 GLP5        0.0000 
     18 CA         18.0830   27.7280   22.4430 C.3       4 GLC5        0.0000 
     19 CA         16.5640   26.4480   22.8840 C.3       8 GLP5        0.0000 
     20 CA         20.7705   28.6070   22.9840 C.3       4 GLC5        0.0000 
     21 CA         21.9390   28.2060   23.9660 C.3       8 GLP5        0.0000 
     22 CA         21.3685   28.6410   21.9883 C.3       4 GLC5        0.0000 
     23 CA         20.4260   29.5420   20.3870 C.3      12 GLL5        0.0000 
     24 CA         18.3042   29.8687   20.0072 C.3       4 GLC5        0.0000 
     25 CA         16.2400   29.5290   19.8520 C.3       8 GLP5        0.0000 
     26 CA         26.4664   32.4625   21.5141 C.3       4 GLC5        0.0000 
     27 CA         25.0090   34.2880   21.1980 C.3      12 GLL5        0.0000 
     28 CA         27.6880   31.0710   22.1830 C.3       8 GLP5        0.0000 
@<TRIPOS>BOND
@<TRIPOS>SUBSTRUCTURE
     1 ALC1        4 GROUP        1 X    ALC  0     ROOT ALC X 1
     2 SEC2        1 GROUP        1 X    SEC  0     **** SEC X 2
     3 ZIC7        7 GROUP        1 X    ZIC  0     **** ZIC X 5
     4 GLC5       10 GROUP        1 X    GLC  0     **** GLC X 6
     5 ALP1        6 GROUP        1 Y    ALP  0     ROOT ALP Y 8
     6 SEP2        3 GROUP        1 Y    SEP  0     **** SEP Y 9
     7 ZIP7        9 GROUP        1 Y    ZIP  0     **** ZIP Y 12
     8 GLP5       12 GROUP        1 Y    GLP  0     **** GLP Y 13
     9 ALL1        5 GROUP        1 Z    ALL  0     ROOT ALL Z 15
    10 SEL2        2 GROUP        1 Z    SEL  0     **** SEL Z 16
    11 ZIL7        8 GROUP        1 Z    ZIL  0     **** ZIL Z 19
    12 GLL5       11 GROUP        1 Z    GLL  0     **** GLL Z 20
@<TRIPOS>SET

