#    Name: 1xq0_4TR_1_ligand
#    Modification time : Tue Mar 25 10:34:17 2014

@<TRIPOS>MOLECULE
1xq0_4TR_1_ligand
   39    41     1     0     0
SMALL
NO_CHARGES


@<TRIPOS>ATOM
      1 S1         20.3540   26.1270   19.5000 S.o2      1 4TR270      0.0000 
      2 O1         20.5040   25.0730   20.4420 O.2       1 4TR270      0.0000 
      3 O2         19.0880   26.7640   19.3280 O.2       1 4TR270      0.0000 
      4 O3         21.2850   27.3070   20.0960 O.3       1 4TR270      0.0000 
      5 N1         20.9650   25.6800   18.1360 N.pl3     1 4TR270      0.0000 
      6 C1         21.1700   28.6100   19.6340 C.ar      1 4TR270      0.0000 
      7 C2         21.7960   29.0030   18.4320 C.ar      1 4TR270      0.0000 
      8 C3         21.6860   30.3250   17.9840 C.ar      1 4TR270      0.0000 
      9 C4         20.9390   31.2730   18.7400 C.ar      1 4TR270      0.0000 
     10 C5         20.3110   30.8750   19.9380 C.ar      1 4TR270      0.0000 
     11 C6         20.4260   29.5420   20.3870 C.ar      1 4TR270      0.0000 
     12 C7         20.8380   32.7150   18.2630 C.3       1 4TR270      0.0000 
     13 C8         26.2820   34.4920   21.8290 C.1       1 4TR270      0.0000 
     14 N2         27.3000   34.6890   22.3230 N.1       1 4TR270      0.0000 
     15 C9         25.0090   34.2880   21.1980 C.ar      1 4TR270      0.0000 
     16 C10        24.8440   33.3180   20.1770 C.ar      1 4TR270      0.0000 
     17 C11        23.5940   33.1280   19.5670 C.ar      1 4TR270      0.0000 
     18 C12        22.4410   33.9060   19.9580 C.ar      1 4TR270      0.0000 
     19 C13        22.6360   34.8820   20.9920 C.ar      1 4TR270      0.0000 
     20 C14        23.8890   35.0670   21.5970 C.ar      1 4TR270      0.0000 
     21 N3         21.1410   33.7100   19.3370 N.pl3     1 4TR270      0.0000 
     22 N4         19.1240   36.6090   19.0170 N.2       1 4TR270      0.0000 
     23 N5         18.4820   35.9500   20.0610 N.2       1 4TR270      0.0000 
     24 C17        19.1260   34.8500   20.2890 C.2       1 4TR270      0.0000 
     25 N6         20.1880   34.7480   19.4300 N.pl3     1 4TR270      0.0000 
     26 C15        20.1320   35.8770   18.6580 C.2       1 4TR270      0.0000 
     27 BR         19.6020   29.0080   22.0020 Br        1 4TR270      0.0000 
     28 H          21.7339   25.0427   18.1861 H         1 4TR270      0.0000 
     29 H          22.3298   28.3176   17.8907 H         1 4TR270      0.0000 
     30 H          22.1373   30.6199   17.1168 H         1 4TR270      0.0000 
     31 H          19.7721   31.5517   20.4819 H         1 4TR270      0.0000 
     32 H          19.8208   32.8867   17.8736 H         1 4TR270      0.0000 
     33 H          21.5331   32.8561   17.4187 H         1 4TR270      0.0000 
     34 H          25.6492   32.7530   19.8858 H         1 4TR270      0.0000 
     35 H          23.4786   32.4263   18.8263 H         1 4TR270      0.0000 
     36 H          21.8314   35.4518   21.2867 H         1 4TR270      0.0000 
     37 H          24.0056   35.7695   22.3353 H         1 4TR270      0.0000 
     38 H          18.9195   34.1669   20.9631 H         1 4TR270      0.0000 
     39 H          20.7811   36.0674   17.9453 H         1 4TR270      0.0000 
@<TRIPOS>BOND
     1    2    1 2    
     2    3    1 2    
     3    4    1 1    
     4    5    1 1    
     5    6    4 1    
     6   28    5 1    
     7    7    6 ar   
     8   11    6 ar   
     9    8    7 ar   
    10   29    7 1    
    11    9    8 ar   
    12   30    8 1    
    13   10    9 ar   
    14   12    9 1    
    15   11   10 ar   
    16   31   10 1    
    17   27   11 1    
    18   21   12 1    
    19   32   12 1    
    20   33   12 1    
    21   14   13 3    
    22   15   13 1    
    23   16   15 ar   
    24   20   15 ar   
    25   17   16 ar   
    26   34   16 1    
    27   18   17 ar   
    28   35   17 1    
    29   19   18 ar   
    30   21   18 1    
    31   20   19 ar   
    32   36   19 1    
    33   37   20 1    
    34   25   21 1    
    35   23   22 1    
    36   26   22 2    
    37   24   23 2    
    38   25   24 1    
    39   38   24 1    
    40   26   25 1    
    41   39   26 1    
@<TRIPOS>SUBSTRUCTURE
     1 4TR270      1 GROUP   
@<TRIPOS>SET

