#    Name: 1m0b_0ZQ_1_INTS_M
#    Modification time : Tue Mar 25 11:19:17 2014

@<TRIPOS>MOLECULE
1m0b_0ZQ_1_INTS_M
  110     0    12     0     0
SMALL
NO_CHARGES


@<TRIPOS>ATOM
      1 CA         -9.4390   16.6400   -8.6535 C.3       4 GLC5        0.0000 
      2 CA         -8.9150   16.1400   -6.9140 C.3      12 GLL5        0.0000 
      3 CA         -9.9630   17.1400  -10.3930 C.3       8 GLP5        0.0000 
      4 CA         -8.7515   14.1225   -7.7185 C.3       4 GLC5        0.0000 
      5 CA         -8.5880   12.1050   -8.5230 C.3       8 GLP5        0.0000 
      6 CA        -11.8955   14.7065   -4.1845 C.3       4 GLC5        0.0000 
      7 CA        -10.4790   15.3880   -5.0860 C.3      12 GLL5        0.0000 
      8 CA        -13.3120   14.0250   -3.2830 C.3       8 GLP5        0.0000 
      9 CA         -7.9710   12.6560   -4.3185 C.3       4 GLC5        0.0000 
     10 CA         -8.1980   14.2870   -5.3690 C.3      12 GLL5        0.0000 
     11 CA         -7.7440   11.0250   -3.2680 C.3       8 GLP5        0.0000 
     12 CA         -8.3930   13.1960   -6.9460 C.3       4 GLC5        0.0000 
     13 CA         -6.7420   13.8485   -3.8865 C.3       4 GLC5        0.0000 
     14 CA         -5.2860   13.4100   -2.4040 C.3       8 GLP5        0.0000 
     15 O          -8.1300   19.0950   -2.7290 O.2       1 ALC1        0.0000 
     16 O          -7.9010   17.7520   -2.7510 O.2       9 ALL1        0.0000 
     17 O          -8.3590   20.4380   -2.7070 O.2       5 ALP1        0.0000 
     18 CA         -9.2850   20.3660   -1.1830 C.3       4 GLC5        0.0000 
     19 CA         -8.8060   18.6250   -0.6340 C.3      12 GLL5        0.0000 
     20 CA         -9.7640   22.1070   -1.7320 C.3       8 GLP5        0.0000 
     21 CA         -6.2000   20.6700   -0.9395 C.3       4 GLC5        0.0000 
     22 CA         -6.3200   18.6940   -1.1310 C.3      12 GLL5        0.0000 
     23 CA         -6.0800   22.6460   -0.7480 C.3       8 GLP5        0.0000 
     24 CA         -4.3880   15.8750    0.7570 C.3       4 GLC5        0.0000 
     25 CA         -4.5230   16.9350   -1.1660 C.3      12 GLL5        0.0000 
     26 CA         -4.2530   14.8150    2.6800 C.3       8 GLP5        0.0000 
     27 OD1       -10.0675   18.4445    0.7185 O.co2     3 ASC3        0.0000 
     28 OD1       -10.6760   17.0270   -0.3340 O.co2    11 ASL3        0.0000 
     29 OD1        -9.4590   19.8620    1.7710 O.co2     7 ASP3        0.0000 
     30 OD1       -11.5410   18.6420   -0.7115 O.co2     3 ASC3        0.0000 
     31 OD1       -12.4060   20.2570   -1.0890 O.co2     7 ASP3        0.0000 
     32 OD1       -11.5695   17.5950   -1.0220 O.co2     3 ASC3        0.0000 
     33 OD1       -12.4630   18.1630   -1.7100 O.co2     7 ASP3        0.0000 
     34 CA        -14.9665   15.2650    0.9180 C.3       4 GLC5        0.0000 
     35 CA        -13.3250   13.9120    1.1130 C.3      12 GLL5        0.0000 
     36 CA        -16.6080   16.6180    0.7230 C.3       8 GLP5        0.0000 
     37 CA        -13.4790    9.6595    0.7155 C.3       4 GLC5        0.0000 
     38 CA        -13.6910   11.5490    1.3950 C.3      12 GLL5        0.0000 
     39 CA        -13.2670    7.7700    0.0360 C.3       8 GLP5        0.0000 
     40 O         -12.1715   16.4345    2.7445 O.2       1 ALC1        0.0000 
     41 O         -10.9030   15.4250    2.7800 O.2       9 ALL1        0.0000 
     42 O         -13.4400   17.4440    2.7090 O.2       5 ALP1        0.0000 
     43 CA        -11.1905   16.7690    4.3970 C.3       4 GLC5        0.0000 
     44 CA        -10.2460   14.8750    3.9650 C.3      12 GLL5        0.0000 
     45 CA        -12.1350   18.6630    4.8290 C.3       8 GLP5        0.0000 
     46 CA         -9.4180   13.0925    3.2010 C.3       4 GLC5        0.0000 
     47 CA         -8.5900   11.3100    2.4370 C.3       8 GLP5        0.0000 
     48 N         -12.6885   16.6420    6.0370 N.am      2 SEC2        0.0000 
     49 N         -12.1910   15.4600    5.2250 N.am     10 SEL2        0.0000 
     50 N         -13.1860   17.8240    6.8490 N.am      6 SEP2        0.0000 
     51 CA         -7.1565   16.1690    6.9170 C.3       4 GLC5        0.0000 
     52 CA         -8.4970   15.3860    5.7830 C.3      12 GLL5        0.0000 
     53 CA         -5.8160   16.9520    8.0510 C.3       8 GLP5        0.0000 
     54 CA         -7.3415   14.4540    7.1640 C.3       4 GLC5        0.0000 
     55 CA         -6.1860   13.5220    8.5450 C.3       8 GLP5        0.0000 
     56 CA         -6.4335   15.4025    4.9205 C.3       4 GLC5        0.0000 
     57 CA         -4.3700   15.4190    4.0580 C.3       8 GLP5        0.0000 
     58 N          -9.8270   14.8905    9.2135 N.am      2 SEC2        0.0000 
     59 N          -8.9920   14.8270    8.0690 N.am     10 SEL2        0.0000 
     60 N         -10.6620   14.9540   10.3580 N.am      6 SEP2        0.0000 
     61 N         -11.0605   17.0625    7.9820 N.am      2 SEC2        0.0000 
     62 N         -10.4510   16.0560    6.9880 N.am     10 SEL2        0.0000 
     63 N         -11.6700   18.0690    8.9760 N.am      6 SEP2        0.0000 
     64 O         -10.4240   12.5190    5.3080 O.2       1 ALC1        0.0000 
     65 O         -11.3100   13.4390    5.6310 O.2       9 ALL1        0.0000 
     66 O          -9.5380   11.5990    4.9850 O.2       5 ALP1        0.0000 
     67 CA        -13.3090   14.8300    7.6590 C.3       4 GLC5        0.0000 
     68 CA        -12.3090   13.1080    6.6370 C.3      12 GLL5        0.0000 
     69 CA        -14.3090   16.5520    8.6810 C.3       8 GLP5        0.0000 
     70 N          -9.6885   10.8100    7.4740 N.am      2 SEC2        0.0000 
     71 N         -10.6190   11.9180    7.8780 N.am     10 SEL2        0.0000 
     72 N          -8.7580    9.7020    7.0700 N.am      6 SEP2        0.0000 
     73 CA        -12.5845    8.7225    1.8335 C.3       4 GLC5        0.0000 
     74 CA        -11.9020    9.6750    3.6310 C.3      12 GLL5        0.0000 
     75 CA        -10.4744   17.2309   -5.2794 C.3       4 GLC5        0.0000 
     76 CA        -11.2300   18.8340   -4.9140 C.3       8 GLP5        0.0000 
     77 CA        -10.7114   14.5514   -6.8804 C.3       4 GLC5        0.0000 
     78 CA        -11.7040   13.4750   -8.1160 C.3       8 GLP5        0.0000 
     79 CA         -3.7620   18.9827   -0.6298 C.3       4 GLC5        0.0000 
     80 CA         -5.1400   18.0280   -1.7760 C.3      12 GLL5        0.0000 
     81 CA         -2.6570   20.2980    0.4450 C.3       8 GLP5        0.0000 
     82 CA         -1.7145   15.9038   -1.2157 C.3       4 GLC5        0.0000 
     83 CA         -3.4830   16.2590   -1.8020 C.3      12 GLL5        0.0000 
     84 CA         -0.1630   15.3390   -0.0010 C.3       8 GLP5        0.0000 
     85 CA         -4.4060   15.0237   -2.3377 C.3       4 GLC5        0.0000 
     86 CA         -3.0490   16.6780   -3.0590 C.3      12 GLL5        0.0000 
     87 CA        -11.7575   12.7985   -1.6462 C.3       4 GLC5        0.0000 
     88 CA        -11.6570   14.7930   -0.5430 C.3      12 GLL5        0.0000 
     89 CA        -11.4950   11.3690   -3.0810 C.3       8 GLP5        0.0000 
     90 CA        -14.2227   12.7003   -0.2328 C.3       4 GLC5        0.0000 
     91 CA        -12.3830   13.6630    0.1200 C.3      12 GLL5        0.0000 
     92 CA        -16.2000   12.3940   -0.4110 C.3       8 GLP5        0.0000 
     93 CA        -11.9625   11.5953   -1.4980 C.3       4 GLC5        0.0000 
     94 CA        -12.7520   11.2930    0.3990 C.3      12 GLL5        0.0000 
     95 CA        -12.8420   10.1127   -0.6160 C.3       4 GLC5        0.0000 
     96 CA        -12.1080   12.3500   -0.2290 C.3      12 GLL5        0.0000 
     97 CA        -13.2540    8.4040   -1.3170 C.3       8 GLP5        0.0000 
     98 CA        -14.9260   12.8897    0.5108 C.3       4 GLC5        0.0000 
     99 CA        -13.0033   13.8128   -1.4183 C.3       4 GLC5        0.0000 
    100 CA        -14.7107   11.9075    0.2430 C.3       4 GLC5        0.0000 
    101 CA         -9.7830   17.4202    5.0490 C.3       4 GLC5        0.0000 
    102 CA         -9.2210   15.8670    4.5270 C.3      12 GLL5        0.0000 
    103 CA        -10.7070   19.2140    4.9430 C.3       8 GLP5        0.0000 
    104 CA        -10.9342    9.8712    5.7287 C.3       4 GLC5        0.0000 
    105 CA        -12.9260   10.9370    5.4420 C.3      12 GLL5        0.0000 
    106 CA         -8.8760    9.3950    5.6570 C.3       8 GLP5        0.0000 
    107 CA        -10.4992    9.8377    4.7803 C.3       4 GLC5        0.0000 
    108 CA        -10.3562   10.7952    3.1702 C.3       4 GLC5        0.0000 
    109 CA        -10.6042    8.9602    5.3232 C.3       4 GLC5        0.0000 
    110 CA        -12.0430    8.5060    4.3560 C.3      12 GLL5        0.0000 
@<TRIPOS>BOND
@<TRIPOS>SUBSTRUCTURE
     1 ALC1       15 GROUP        1 X    ALC  0     ROOT ALC X 1
     2 SEC2       48 GROUP        1 X    SEC  0     **** SEC X 2
     3 ASC3       27 GROUP        1 X    ASC  0     **** ASC X 3
     4 GLC5        1 GROUP        1 X    GLC  0     **** GLC X 6
     5 ALP1       17 GROUP        1 Y    ALP  0     ROOT ALP Y 8
     6 SEP2       50 GROUP        1 Y    SEP  0     **** SEP Y 9
     7 ASP3       29 GROUP        1 Y    ASP  0     **** ASP Y 10
     8 GLP5        3 GROUP        1 Y    GLP  0     **** GLP Y 13
     9 ALL1       16 GROUP        1 Z    ALL  0     ROOT ALL Z 15
    10 SEL2       49 GROUP        1 Z    SEL  0     **** SEL Z 16
    11 ASL3       28 GROUP        1 Z    ASL  0     **** ASL Z 17
    12 GLL5        2 GROUP        1 Z    GLL  0     **** GLL Z 20
@<TRIPOS>SET

