#    Name: 1m0b_0ZQ_1_ligand
#    Modification time : Tue Mar 25 11:19:17 2014

@<TRIPOS>MOLECULE
1m0b_0ZQ_1_ligand
   97    99     1     0     0
SMALL
NO_CHARGES


@<TRIPOS>ATOM
      1 O1         -8.3880   15.5290   -2.5950 O.2       1 0ZQ201      0.0000 
      2 C          -8.2370   16.5330   -3.2540 C.2       1 0ZQ201      0.0000 
      3 O2         -8.3700   16.6440   -4.6150 O.3       1 0ZQ201      0.0000 
      4 CT         -9.0020   15.5950   -5.4930 C.3       1 0ZQ201      0.0000 
      5 C1         -8.9150   16.1400   -6.9140 C.3       1 0ZQ201      0.0000 
      6 C2        -10.4790   15.3880   -5.0860 C.3       1 0ZQ201      0.0000 
      7 C3         -8.1980   14.2870   -5.3690 C.3       1 0ZQ201      0.0000 
      8 N          -7.9010   17.7520   -2.7510 N.am      1 0ZQ201      0.0000 
      9 CA         -7.6340   17.9260   -1.3270 C.3       1 0ZQ201      0.0000 
     10 C4         -8.8060   18.6250   -0.6340 C.3       1 0ZQ201      0.0000 
     11 CB         -6.3200   18.6940   -1.1310 C.3       1 0ZQ201      0.0000 
     12 CG         -5.1400   18.0280   -1.7760 C.ar      1 0ZQ201      0.0000 
     13 CD1        -4.6920   18.4390   -3.0330 C.ar      1 0ZQ201      0.0000 
     14 CD2        -4.5230   16.9350   -1.1660 C.ar      1 0ZQ201      0.0000 
     15 CE1        -3.6530   17.7710   -3.6760 C.ar      1 0ZQ201      0.0000 
     16 CE2        -3.4830   16.2590   -1.8020 C.ar      1 0ZQ201      0.0000 
     17 CZ         -3.0490   16.6780   -3.0590 C.ar      1 0ZQ201      0.0000 
     18 CM         -9.5760   17.7220    0.3270 C.3       1 0ZQ201      0.0000 
     19 N1        -10.6760   17.0270   -0.3340 N.4       1 0ZQ201      0.0000 
     20 CA1       -11.2620   15.9140    0.4180 C.3       1 0ZQ201      0.0000 
     21 C5        -10.4190   15.2950    1.5460 C.2       1 0ZQ201      0.0000 
     22 O          -9.3730   14.6980    1.2960 O.2       1 0ZQ201      0.0000 
     23 CB1       -11.6570   14.7930   -0.5430 C.3       1 0ZQ201      0.0000 
     24 CG1       -12.3830   13.6630    0.1200 C.ar      1 0ZQ201      0.0000 
     25 CD11      -12.1080   12.3500   -0.2290 C.ar      1 0ZQ201      0.0000 
     26 CD21      -13.3250   13.9120    1.1130 C.ar      1 0ZQ201      0.0000 
     27 CE11      -12.7520   11.2930    0.3990 C.ar      1 0ZQ201      0.0000 
     28 CE21      -13.9790   12.8590    1.7520 C.ar      1 0ZQ201      0.0000 
     29 CZ1       -13.6910   11.5490    1.3950 C.ar      1 0ZQ201      0.0000 
     30 N2        -10.9030   15.4250    2.7800 N.am      1 0ZQ201      0.0000 
     31 CA2       -10.2460   14.8750    3.9650 C.3       1 0ZQ201      0.0000 
     32 C6        -11.3350   14.6100    5.0010 C.2       1 0ZQ201      0.0000 
     33 O3        -12.1910   15.4600    5.2250 O.2       1 0ZQ201      0.0000 
     34 CB2        -9.2210   15.8670    4.5270 C.3       1 0ZQ201      0.0000 
     35 CG2        -8.4970   15.3860    5.7830 C.3       1 0ZQ201      0.0000 
     36 CD         -9.3760   15.4210    7.0340 C.2       1 0ZQ201      0.0000 
     37 OE1        -8.9920   14.8270    8.0690 O.co2     1 0ZQ201      0.0000 
     38 OE2       -10.4510   16.0560    6.9880 O.co2     1 0ZQ201      0.0000 
     39 N3        -11.3100   13.4390    5.6310 N.am      1 0ZQ201      0.0000 
     40 CA3       -12.3090   13.1080    6.6370 C.3       1 0ZQ201      0.0000 
     41 C7        -11.7400   12.4240    7.8820 C.2       1 0ZQ201      0.0000 
     42 O4        -10.6190   11.9180    7.8780 O.2       1 0ZQ201      0.0000 
     43 CB3       -13.4140   12.2430    6.0110 C.3       1 0ZQ201      0.0000 
     44 CG3       -12.9260   10.9370    5.4420 C.ar      1 0ZQ201      0.0000 
     45 CD12      -13.0590    9.7580    6.1590 C.ar      1 0ZQ201      0.0000 
     46 CD22      -12.3430   10.8860    4.1760 C.ar      1 0ZQ201      0.0000 
     47 CE12      -12.6220    8.5450    5.6230 C.ar      1 0ZQ201      0.0000 
     48 CE22      -11.9020    9.6750    3.6310 C.ar      1 0ZQ201      0.0000 
     49 CZ2       -12.0430    8.5060    4.3560 C.ar      1 0ZQ201      0.0000 
     50 N4        -12.5220   12.4160    8.9550 N.am      1 0ZQ201      0.0000 
     51 H          -7.8230   18.5873   -3.3464 H         1 0ZQ201      0.0000 
     52 H          -7.5095   16.9435   -0.8584 H         1 0ZQ201      0.0000 
     53 H          -9.4979   19.0053   -1.4010 H         1 0ZQ201      0.0000 
     54 H          -8.4240   19.4958   -0.0796 H         1 0ZQ201      0.0000 
     55 H          -6.1397   18.8043   -0.0495 H         1 0ZQ201      0.0000 
     56 H          -6.4455   19.7085   -1.5425 H         1 0ZQ201      0.0000 
     57 H          -5.1388   19.2505   -3.4912 H         1 0ZQ201      0.0000 
     58 H          -4.8403   16.6246   -0.2347 H         1 0ZQ201      0.0000 
     59 H          -3.3339   18.0822   -4.5995 H         1 0ZQ201      0.0000 
     60 H          -3.0377   15.4547   -1.3462 H         1 0ZQ201      0.0000 
     61 H          -2.2835   16.1801   -3.5297 H         1 0ZQ201      0.0000 
     62 H          -9.9501   18.3455    1.1554 H         1 0ZQ201      0.0000 
     63 H          -8.8645   17.0013    0.7622 H         1 0ZQ201      0.0000 
     64 H         -12.2203   16.2462    0.8819 H         1 0ZQ201      0.0000 
     65 H         -10.7427   14.4121   -1.0305 H         1 0ZQ201      0.0000 
     66 H         -12.2876   15.2226   -1.3409 H         1 0ZQ201      0.0000 
     67 H         -11.4107   12.1536   -0.9705 H         1 0ZQ201      0.0000 
     68 H         -13.5429   14.8846    1.3804 H         1 0ZQ201      0.0000 
     69 H         -12.5383   10.3250    0.1317 H         1 0ZQ201      0.0000 
     70 H         -14.6714   13.0554    2.4844 H         1 0ZQ201      0.0000 
     71 H         -14.1681   10.7690    1.8630 H         1 0ZQ201      0.0000 
     72 H         -11.8006   15.9404    2.9680 H         1 0ZQ201      0.0000 
     73 H          -9.7598   13.9537    3.7382 H         1 0ZQ201      0.0000 
     74 H          -9.7346   16.8184    4.7513 H         1 0ZQ201      0.0000 
     75 H          -8.4738   16.0862    3.7442 H         1 0ZQ201      0.0000 
     76 H          -7.6124   16.0157    5.9503 H         1 0ZQ201      0.0000 
     77 H          -8.1451   14.3577    5.6224 H         1 0ZQ201      0.0000 
     78 H         -10.5928   12.7157    5.4426 H         1 0ZQ201      0.0000 
     79 H         -12.8082   14.0381    6.9757 H         1 0ZQ201      0.0000 
     80 H         -13.9074   12.8309    5.2165 H         1 0ZQ201      0.0000 
     81 H         -14.1805   12.0469    6.7820 H         1 0ZQ201      0.0000 
     82 H         -13.4851    9.7724    7.0997 H         1 0ZQ201      0.0000 
     83 H         -12.2339   11.7569    3.6292 H         1 0ZQ201      0.0000 
     84 H         -12.7283    7.6781    6.1660 H         1 0ZQ201      0.0000 
     85 H         -11.4770    9.6623    2.6973 H         1 0ZQ201      0.0000 
     86 H         -11.7240    7.6108    3.9668 H         1 0ZQ201      0.0000 
     87 H         -13.4307   12.8174    8.8402 H         1 0ZQ201      0.0000 
     88 H         -12.1316   12.0092    9.7809 H         1 0ZQ201      0.0000 
     89 H          -7.9680   16.2978   -7.1939 H         1 0ZQ201      0.0000 
     90 H          -9.3159   15.5096   -7.5787 H         1 0ZQ201      0.0000 
     91 H          -9.3974   17.0109   -7.0079 H         1 0ZQ201      0.0000 
     92 H         -10.5640   15.0901   -4.1352 H         1 0ZQ201      0.0000 
     93 H         -11.0111   16.2297   -5.1781 H         1 0ZQ201      0.0000 
     94 H         -10.9264   14.6951   -5.6514 H         1 0ZQ201      0.0000 
     95 H          -7.2454   14.4087   -5.6479 H         1 0ZQ201      0.0000 
     96 H          -8.1869   13.9456   -4.4292 H         1 0ZQ201      0.0000 
     97 H          -8.5802   13.5606   -5.9402 H         1 0ZQ201      0.0000 
@<TRIPOS>BOND
     1    2    1 2    
     2    3    2 1    
     3    8    2 am   
     4    4    3 1    
     5    5    4 1    
     6    6    4 1    
     7    7    4 1    
     8   89    5 1    
     9   90    5 1    
    10   91    5 1    
    11   92    6 1    
    12   93    6 1    
    13   94    6 1    
    14   95    7 1    
    15   96    7 1    
    16   97    7 1    
    17    9    8 1    
    18   51    8 1    
    19   10    9 1    
    20   11    9 1    
    21   52    9 1    
    22   18   10 1    
    23   53   10 1    
    24   54   10 1    
    25   12   11 1    
    26   55   11 1    
    27   56   11 1    
    28   13   12 ar   
    29   14   12 ar   
    30   15   13 ar   
    31   57   13 1    
    32   16   14 ar   
    33   58   14 1    
    34   17   15 ar   
    35   59   15 1    
    36   17   16 ar   
    37   60   16 1    
    38   61   17 1    
    39   19   18 1    
    40   62   18 1    
    41   63   18 1    
    42   20   19 1    
    43   21   20 1    
    44   23   20 1    
    45   64   20 1    
    46   22   21 2    
    47   30   21 am   
    48   24   23 1    
    49   65   23 1    
    50   66   23 1    
    51   25   24 ar   
    52   26   24 ar   
    53   27   25 ar   
    54   67   25 1    
    55   28   26 ar   
    56   68   26 1    
    57   29   27 ar   
    58   69   27 1    
    59   29   28 ar   
    60   70   28 1    
    61   71   29 1    
    62   31   30 1    
    63   72   30 1    
    64   32   31 1    
    65   34   31 1    
    66   73   31 1    
    67   33   32 2    
    68   39   32 am   
    69   35   34 1    
    70   74   34 1    
    71   75   34 1    
    72   36   35 1    
    73   76   35 1    
    74   77   35 1    
    75   37   36 ar   
    76   38   36 ar   
    77   40   39 1    
    78   78   39 1    
    79   41   40 1    
    80   43   40 1    
    81   79   40 1    
    82   42   41 2    
    83   50   41 am   
    84   44   43 1    
    85   80   43 1    
    86   81   43 1    
    87   45   44 ar   
    88   46   44 ar   
    89   47   45 ar   
    90   82   45 1    
    91   48   46 ar   
    92   83   46 1    
    93   49   47 ar   
    94   84   47 1    
    95   49   48 ar   
    96   85   48 1    
    97   86   49 1    
    98   87   50 1    
    99   88   50 1    
@<TRIPOS>SUBSTRUCTURE
     1 0ZQ201      1 GROUP   
@<TRIPOS>SET

