#    Name: 3qtv_06P_1_INTS_M
#    Modification time : Tue Mar 25 10:08:14 2014

@<TRIPOS>MOLECULE
3qtv_06P_1_INTS_M
   64     0     9     0     0
SMALL
NO_CHARGES


@<TRIPOS>ATOM
      1 O          15.2810  -14.8695   23.8110 O.2       1 ALC1        0.0000 
      2 O          16.3240  -15.5750   23.1220 O.2       7 ALL1        0.0000 
      3 O          14.2380  -14.1640   24.5000 O.2       4 ALP1        0.0000 
      4 N          15.5540  -12.1805   23.9990 N.am      2 SEC2        0.0000 
      5 N          16.4020  -12.7660   22.9200 N.am      8 SEL2        0.0000 
      6 N          14.7060  -11.5950   25.0780 N.am      5 SEP2        0.0000 
      7 CA         17.5815  -13.3215   26.1345 C.3       3 GLC5        0.0000 
      8 CA         18.0670  -14.7750   24.5810 C.3       9 GLL5        0.0000 
      9 CA         17.0960  -11.8680   27.6880 C.3       6 GLP5        0.0000 
     10 CA         22.5850  -11.6135   23.6825 C.3       3 GLC5        0.0000 
     11 CA         22.0810  -13.2550   24.8330 C.3       9 GLL5        0.0000 
     12 CA         23.0890   -9.9720   22.5320 C.3       6 GLP5        0.0000 
     13 CA         17.6700  -11.0470   22.8420 C.3       3 GLC5        0.0000 
     14 CA         17.9440  -11.7490   20.9560 C.3       9 GLL5        0.0000 
     15 CA         17.3960  -10.3450   24.7280 C.3       6 GLP5        0.0000 
     16 O          16.4985   -9.4250   21.4145 O.2       1 ALC1        0.0000 
     17 O          15.9050  -10.4820   20.5940 O.2       7 ALL1        0.0000 
     18 O          17.0920   -8.3680   22.2350 O.2       4 ALP1        0.0000 
     19 CA         14.9765   -8.6105   18.7385 C.3       3 GLC5        0.0000 
     20 CA         14.5420  -10.2290   20.0990 C.3       9 GLL5        0.0000 
     21 CA         15.4110   -6.9920   17.3780 C.3       6 GLP5        0.0000 
     22 CA         10.7305   -8.3860   22.6220 C.3       3 GLC5        0.0000 
     23 CA         12.2790   -9.6970   23.1090 C.3       9 GLL5        0.0000 
     24 CA          9.1820   -7.0750   22.1350 C.3       6 GLP5        0.0000 
     25 CA         12.9840  -10.9830   24.4805 C.3       3 GLC5        0.0000 
     26 CA         13.6890  -12.2690   25.8520 C.3       6 GLP5        0.0000 
     27 CA         12.2180  -11.7070   25.0855 C.3       3 GLC5        0.0000 
     28 CA         10.7470  -11.1450   24.3190 C.3       9 GLL5        0.0000 
     29 CA          9.2590  -12.7520   23.9860 C.3       3 GLC5        0.0000 
     30 CA          7.7710  -14.3590   23.6530 C.3       6 GLP5        0.0000 
     31 CA         10.8930   -9.8745   26.0995 C.3       3 GLC5        0.0000 
     32 CA         11.0390   -8.6040   27.8800 C.3       6 GLP5        0.0000 
     33 CA         12.8620  -12.0885   24.1265 C.3       3 GLC5        0.0000 
     34 CA         12.0350  -11.9080   22.4010 C.3       9 GLL5        0.0000 
     35 CA         10.4460  -12.9025   21.7520 C.3       3 GLC5        0.0000 
     36 CA          8.8570  -13.8970   21.1030 C.3       6 GLP5        0.0000 
     37 CA         19.0983  -14.7527   26.5865 C.3       3 GLC5        0.0000 
     38 CA         19.4200  -14.9880   28.5520 C.3       6 GLP5        0.0000 
     39 CA         20.5033  -11.2018   24.1235 C.3       3 GLC5        0.0000 
     40 CA         19.7430  -13.0940   25.3650 C.3       9 GLL5        0.0000 
     41 CA         20.6200   -9.5650   22.8410 C.3       6 GLP5        0.0000 
     42 CA         19.9032  -13.9132   26.9790 C.3       3 GLC5        0.0000 
     43 CA         21.0300  -12.5830   25.4470 C.3       9 GLL5        0.0000 
     44 CA         22.8388  -12.0875   26.3470 C.3       3 GLC5        0.0000 
     45 CA         24.1220  -11.2560   27.5540 C.3       6 GLP5        0.0000 
     46 CA         18.8591  -11.7375   24.9790 C.3       3 GLC5        0.0000 
     47 CA         18.8192  -10.1427   19.2458 C.3       3 GLC5        0.0000 
     48 CA         19.1800   -8.5610   18.0980 C.3       6 GLP5        0.0000 
     49 CA         21.5388  -13.5165   20.1837 C.3       3 GLC5        0.0000 
     50 CA         20.0360  -12.7230   20.2060 C.3       9 GLL5        0.0000 
     51 CA         23.4110  -13.7790   19.7610 C.3       6 GLP5        0.0000 
     52 CA         19.9336  -10.8944   21.5704 C.3       3 GLC5        0.0000 
     53 CA         18.9049  -13.9131   19.0204 C.3       3 GLC5        0.0000 
     54 CA         18.9730  -11.7000   19.8310 C.3       9 GLL5        0.0000 
     55 CA         18.4090  -14.8280   17.5280 C.3       6 GLP5        0.0000 
     56 CA         15.0380  -10.0495   22.4825 C.3       3 GLC5        0.0000 
     57 CA         16.0370   -9.7550   24.3110 C.3       6 GLP5        0.0000 
     58 CA         12.6765   -7.7177   21.9533 C.3       3 GLC5        0.0000 
     59 CA         13.2030   -9.4420   22.1000 C.3       9 GLL5        0.0000 
     60 CA         12.6120   -5.8660   21.3020 C.3       6 GLP5        0.0000 
     61 CA         14.3890   -9.6623   23.4578 C.3       3 GLC5        0.0000 
     62 CA         10.7847  -11.3090   20.8725 C.3       3 GLC5        0.0000 
     63 CA         12.9460  -11.7040   21.3730 C.3       9 GLL5        0.0000 
     64 CA          9.0790  -10.8120   19.8580 C.3       6 GLP5        0.0000 
@<TRIPOS>BOND
@<TRIPOS>SUBSTRUCTURE
     1 ALC1        1 GROUP        1 X    ALC  0     ROOT ALC X 1
     2 SEC2        4 GROUP        1 X    SEC  0     **** SEC X 2
     3 GLC5        7 GROUP        1 X    GLC  0     **** GLC X 6
     4 ALP1        3 GROUP        1 Y    ALP  0     ROOT ALP Y 8
     5 SEP2        6 GROUP        1 Y    SEP  0     **** SEP Y 9
     6 GLP5        9 GROUP        1 Y    GLP  0     **** GLP Y 13
     7 ALL1        2 GROUP        1 Z    ALL  0     ROOT ALL Z 15
     8 SEL2        5 GROUP        1 Z    SEL  0     **** SEL Z 16
     9 GLL5        8 GROUP        1 Z    GLL  0     **** GLL Z 20
@<TRIPOS>SET

