#    Name: 3qtv_06P_1_ligand
#    Modification time : Tue Mar 25 10:08:14 2014

@<TRIPOS>MOLECULE
3qtv_06P_1_ligand
   55    57     1     0     0
SMALL
NO_CHARGES


@<TRIPOS>ATOM
      1 N4         16.3240  -15.5750   23.1220 N.4       1 06P1001     0.0000 
      2 C3         17.5740  -14.8360   23.1290 C.3       1 06P1001     0.0000 
      3 C5         17.3340  -13.4700   22.5350 C.2       1 06P1001     0.0000 
      4 O7         16.4020  -12.7660   22.9200 O.2       1 06P1001     0.0000 
      5 C2         18.0670  -14.7750   24.5810 C.3       1 06P1001     0.0000 
      6 C1         19.4860  -14.2600   24.6610 C.ar      1 06P1001     0.0000 
      7 C8         19.7430  -13.0940   25.3650 C.ar      1 06P1001     0.0000 
      8 C12        20.5370  -14.9340   24.0400 C.ar      1 06P1001     0.0000 
      9 C9         21.0300  -12.5830   25.4470 C.ar      1 06P1001     0.0000 
     10 C11        21.8300  -14.4270   24.1340 C.ar      1 06P1001     0.0000 
     11 C10        22.0810  -13.2550   24.8330 C.ar      1 06P1001     0.0000 
     12 N6         18.1550  -13.0590   21.5740 N.am      1 06P1001     0.0000 
     13 C13        17.9440  -11.7490   20.9560 C.3       1 06P1001     0.0000 
     14 C14        16.5540  -11.6290   20.3890 C.2       1 06P1001     0.0000 
     15 O15        16.0470  -12.5660   19.7770 O.2       1 06P1001     0.0000 
     16 C19        18.9730  -11.7000   19.8310 C.3       1 06P1001     0.0000 
     17 C20        20.0360  -12.7230   20.2060 C.3       1 06P1001     0.0000 
     18 C21        19.2970  -13.7850   21.0070 C.3       1 06P1001     0.0000 
     19 N16        15.9050  -10.4820   20.5940 N.am      1 06P1001     0.0000 
     20 C17        14.5420  -10.2290   20.0990 C.3       1 06P1001     0.0000 
     21 C18        13.5360  -10.4590   21.2090 C.ar      1 06P1001     0.0000 
     22 C22        13.2030   -9.4420   22.1000 C.ar      1 06P1001     0.0000 
     23 C23        12.2790   -9.6970   23.1090 C.ar      1 06P1001     0.0000 
     24 N24        11.7190  -10.9100   23.2440 N.pl3     1 06P1001     0.0000 
     25 C25        10.7470  -11.1450   24.3190 C.3       1 06P1001     0.0000 
     26 C26        12.0350  -11.9080   22.4010 C.ar      1 06P1001     0.0000 
     27 C27        12.9460  -11.7040   21.3730 C.ar      1 06P1001     0.0000 
     28 H          18.3106  -15.3584   22.5430 H         1 06P1001     0.0000 
     29 H          18.0141  -15.7770   25.0127 H         1 06P1001     0.0000 
     30 H          17.4046  -14.1188   25.1500 H         1 06P1001     0.0000 
     31 H          18.9655  -12.5982   25.8354 H         1 06P1001     0.0000 
     32 H          20.3575  -15.7971   23.5179 H         1 06P1001     0.0000 
     33 H          21.2076  -11.7104   25.9597 H         1 06P1001     0.0000 
     34 H          22.6089  -14.9297   23.6782 H         1 06P1001     0.0000 
     35 H          23.0360  -12.8854   24.8972 H         1 06P1001     0.0000 
     36 H          18.1501  -10.9707   21.6370 H         1 06P1001     0.0000 
     37 H          19.4086  -10.7260   19.7842 H         1 06P1001     0.0000 
     38 H          18.5116  -11.9789   18.9092 H         1 06P1001     0.0000 
     39 H          20.7803  -12.2632   20.8159 H         1 06P1001     0.0000 
     40 H          20.4466  -13.1572   19.3227 H         1 06P1001     0.0000 
     41 H          18.9746  -14.5585   20.3455 H         1 06P1001     0.0000 
     42 H          19.9414  -14.1536   21.7743 H         1 06P1001     0.0000 
     43 H          16.3366   -9.6884   21.1258 H         1 06P1001     0.0000 
     44 H          14.3065  -10.8982   19.2675 H         1 06P1001     0.0000 
     45 H          14.4477   -9.1983   19.7476 H         1 06P1001     0.0000 
     46 H          13.6328   -8.5181   22.0136 H         1 06P1001     0.0000 
     47 H          12.0318   -8.9197   23.7596 H         1 06P1001     0.0000 
     48 H          11.6036  -12.8498   22.5031 H         1 06P1001     0.0000 
     49 H          13.1826  -12.4747   20.7347 H         1 06P1001     0.0000 
     50 H          15.5335  -14.9684   23.2061 H         1 06P1001     0.0000 
     51 H          16.2053  -16.0958   22.2766 H         1 06P1001     0.0000 
     52 H          16.2742  -16.2277   23.8780 H         1 06P1001     0.0000 
     53 H          11.1450  -10.9817   25.2218 H         1 06P1001     0.0000 
     54 H           9.9505  -10.5459   24.2371 H         1 06P1001     0.0000 
     55 H          10.4079  -12.0857   24.3140 H         1 06P1001     0.0000 
@<TRIPOS>BOND
     1    2    1 1    
     2   50    1 1    
     3   51    1 1    
     4   52    1 1    
     5    3    2 1    
     6    5    2 1    
     7   28    2 1    
     8    4    3 2    
     9   12    3 am   
    10    6    5 1    
    11   29    5 1    
    12   30    5 1    
    13    7    6 ar   
    14    8    6 ar   
    15    9    7 ar   
    16   31    7 1    
    17   10    8 ar   
    18   32    8 1    
    19   11    9 ar   
    20   33    9 1    
    21   11   10 ar   
    22   34   10 1    
    23   35   11 1    
    24   13   12 1    
    25   18   12 1    
    26   14   13 1    
    27   16   13 1    
    28   36   13 1    
    29   15   14 2    
    30   19   14 am   
    31   17   16 1    
    32   37   16 1    
    33   38   16 1    
    34   18   17 1    
    35   39   17 1    
    36   40   17 1    
    37   41   18 1    
    38   42   18 1    
    39   20   19 1    
    40   43   19 1    
    41   21   20 1    
    42   44   20 1    
    43   45   20 1    
    44   22   21 ar   
    45   27   21 ar   
    46   23   22 ar   
    47   46   22 1    
    48   24   23 ar   
    49   47   23 1    
    50   25   24 1    
    51   26   24 ar   
    52   53   25 1    
    53   54   25 1    
    54   55   25 1    
    55   27   26 ar   
    56   48   26 1    
    57   49   27 1    
@<TRIPOS>SUBSTRUCTURE
     1 06P1001     1 GROUP   
@<TRIPOS>SET

