#    Name: 2iyp_NAP_3_INTS_M
#    Modification time : Tue Mar 25 19:01:21 2014

@<TRIPOS>MOLECULE
2iyp_NAP_3_INTS_M
   80     0    12     0     0
SMALL
NO_CHARGES


@<TRIPOS>ATOM
      1 CA          1.2920   -9.6675   66.6020 C.3       4 GLC5        0.0000 
      2 CA          0.2110  -10.8310   65.2560 C.3      12 GLL5        0.0000 
      3 CA          2.3730   -8.5040   67.9480 C.3       8 GLP5        0.0000 
      4 CA          2.4465   -9.5515   63.7550 C.3       4 GLC5        0.0000 
      5 CA          1.2330  -11.0830   64.1690 C.3      12 GLL5        0.0000 
      6 CA          3.6600   -8.0200   63.3410 C.3       8 GLP5        0.0000 
      7 N           2.7430   -9.4700   65.1780 N.am      2 SEC2        0.0000 
      8 N           2.5320  -10.9990   64.7230 N.am     10 SEL2        0.0000 
      9 N           2.9540   -7.9410   65.6330 N.am      6 SEP2        0.0000 
     10 O           1.9360  -13.7240   61.4565 O.2       1 ALC1        0.0000 
     11 O           1.5220  -12.6650   62.3650 O.2       9 ALL1        0.0000 
     12 O           2.3500  -14.7830   60.5480 O.2       5 ALP1        0.0000 
     13 CA          4.0810  -11.1670   63.7275 C.3       4 GLC5        0.0000 
     14 CA          3.1310  -12.2810   64.8420 C.3      12 GLL5        0.0000 
     15 CA          5.0310  -10.0530   62.6130 C.3       8 GLP5        0.0000 
     16 CA          7.2050  -15.2210   65.2805 C.3       4 GLC5        0.0000 
     17 CA          7.3180  -13.3280   66.2900 C.3      12 GLL5        0.0000 
     18 CA          7.0920  -17.1140   64.2710 C.3       8 GLP5        0.0000 
     19 N          -3.7775   -8.0150   61.0325 N.am      2 SEC2        0.0000 
     20 N          -3.4890   -7.9730   62.6260 N.am     10 SEL2        0.0000 
     21 N          -4.0660   -8.0570   59.4390 N.am      6 SEP2        0.0000 
     22 CA         -1.4385   -6.2600   61.4090 C.3       4 GLC5        0.0000 
     23 CA         -0.1060   -6.5910   63.1680 C.3      12 GLL5        0.0000 
     24 CA         -2.7710   -5.9290   59.6500 C.3       8 GLP5        0.0000 
     25 CA          1.6165   -6.0990   65.8655 C.3       4 GLC5        0.0000 
     26 CA          0.5060   -4.8140   64.7690 C.3      12 GLL5        0.0000 
     27 CA          2.7270   -7.3840   66.9620 C.3       8 GLP5        0.0000 
     28 N           1.8495   -2.5740   64.8630 N.am      2 SEC2        0.0000 
     29 N           1.7590   -4.2260   65.0260 N.am     10 SEL2        0.0000 
     30 N           1.9400   -0.9220   64.7000 N.am      6 SEP2        0.0000 
     31 O           2.6995   -5.1285   64.8275 O.2       1 ALC1        0.0000 
     32 O           1.7590   -4.2260   65.0260 O.2       9 ALL1        0.0000 
     33 O           3.6400   -6.0310   64.6290 O.2       5 ALP1        0.0000 
     34 CA         -0.0850   -1.8940   65.6865 C.3       4 GLC5        0.0000 
     35 CA         -0.6480   -3.8320   64.9350 C.3      12 GLL5        0.0000 
     36 CA          0.4780    0.0440   66.4380 C.3       8 GLP5        0.0000 
     37 N           0.7620   -1.9020   65.3240 N.am      2 SEC2        0.0000 
     38 N          -0.4160   -2.8820   65.9480 N.am     10 SEL2        0.0000 
     39 CA         -0.5310   -3.4125   61.3985 C.3       4 GLC5        0.0000 
     40 CA         -0.7720   -3.1920   63.5590 C.3      12 GLL5        0.0000 
     41 CA         -0.2900   -3.6330   59.2380 C.3       8 GLP5        0.0000 
     42 CA         -3.4795   -4.2730   62.0330 C.3       4 GLC5        0.0000 
     43 CA         -3.2900   -3.4050   63.4740 C.3      12 GLL5        0.0000 
     44 CA         -3.6690   -5.1410   60.5920 C.3       8 GLP5        0.0000 
     45 CA         -4.7810   -3.5035   61.4910 C.3       4 GLC5        0.0000 
     46 CA         -4.5520   -2.8840   63.0930 C.3      12 GLL5        0.0000 
     47 CA         -5.0100   -4.1230   59.8890 C.3       8 GLP5        0.0000 
     48 O          -7.3140   -5.7865   64.1330 O.2       1 ALC1        0.0000 
     49 O          -5.8870   -4.9250   63.6730 O.2       9 ALL1        0.0000 
     50 O          -8.7410   -6.6480   64.5930 O.2       5 ALP1        0.0000 
     51 CA         -1.2485   -2.5530   60.9075 C.3       4 GLC5        0.0000 
     52 CA         -2.2070   -1.4730   62.5770 C.3      12 GLL5        0.0000 
     53 NZ         -0.2245  -17.3865   63.9260 N.4       3 LYC4        0.0000 
     54 NZ          0.5480  -16.3220   63.8470 N.4      11 LYL4        0.0000 
     55 NZ         -0.9970  -18.4510   64.0050 N.4       7 LYP4        0.0000 
     56 N          -0.2245  -17.3865   63.9260 N.am      2 SEC2        0.0000 
     57 N           0.5480  -16.3220   63.8470 N.am     10 SEL2        0.0000 
     58 N          -0.9970  -18.4510   64.0050 N.am      6 SEP2        0.0000 
     59 NZ          3.4810  -16.5520   66.0335 N.4       3 LYC4        0.0000 
     60 NZ          2.7750  -16.8720   64.8370 N.4      11 LYL4        0.0000 
     61 NZ          5.4120  -16.6340   67.5360 N.4       7 LYP4        0.0000 
     62 N           2.8275  -17.9730   64.6355 N.am      2 SEC2        0.0000 
     63 N           2.7750  -16.8720   64.8370 N.am     10 SEL2        0.0000 
     64 N           2.8800  -19.0740   64.4340 N.am      6 SEP2        0.0000 
     65 N           3.4810  -16.5520   66.0335 N.am      2 SEC2        0.0000 
     66 N           4.1870  -16.2320   67.2300 N.am      6 SEP2        0.0000 
     67 CA         -0.7215  -11.6552   63.1676 C.3       4 GLC5        0.0000 
     68 CA         -2.3380  -11.5740   62.1300 C.3       8 GLP5        0.0000 
     69 CA          5.7470  -11.1981   67.9074 C.3       4 GLC5        0.0000 
     70 CA          5.1130  -12.8140   67.8640 C.3      12 GLL5        0.0000 
     71 CA          6.1260   -9.5290   68.4940 C.3       8 GLP5        0.0000 
     72 CA          1.4548   -6.1628   61.6075 C.3       4 GLC5        0.0000 
     73 CA          2.7290   -6.4420   59.9810 C.3       8 GLP5        0.0000 
     74 CA          1.9203   -6.9518   63.2875 C.3       4 GLC5        0.0000 
     75 CA          0.4670   -5.1760   63.3000 C.3      12 GLL5        0.0000 
     76 CA         -3.6140   -2.0715   60.7874 C.3       4 GLC5        0.0000 
     77 CA         -3.4280   -0.9290   62.1900 C.3      12 GLL5        0.0000 
     78 CA         -4.1200   -2.7650   59.1280 C.3       8 GLP5        0.0000 
     79 CA          1.3106   -3.1093   63.3939 C.3       4 GLC5        0.0000 
     80 CA          2.7330   -1.9650   62.6470 C.3       8 GLP5        0.0000 
@<TRIPOS>BOND
@<TRIPOS>SUBSTRUCTURE
     1 ALC1       10 GROUP        1 X    ALC  0     ROOT ALC X 1
     2 SEC2        7 GROUP        1 X    SEC  0     **** SEC X 2
     3 LYC4       53 GROUP        1 X    LYC  0     **** LYC X 4
     4 GLC5        1 GROUP        1 X    GLC  0     **** GLC X 6
     5 ALP1       12 GROUP        1 Y    ALP  0     ROOT ALP Y 8
     6 SEP2        9 GROUP        1 Y    SEP  0     **** SEP Y 9
     7 LYP4       55 GROUP        1 Y    LYP  0     **** LYP Y 11
     8 GLP5        3 GROUP        1 Y    GLP  0     **** GLP Y 13
     9 ALL1       11 GROUP        1 Z    ALL  0     ROOT ALL Z 15
    10 SEL2        8 GROUP        1 Z    SEL  0     **** SEL Z 16
    11 LYL4       54 GROUP        1 Z    LYL  0     **** LYL Z 18
    12 GLL5        2 GROUP        1 Z    GLL  0     **** GLL Z 20
@<TRIPOS>SET

