#    Name: 2iyp_NAP_3_ligand
#    Modification time : Tue Mar 25 19:01:22 2014

@<TRIPOS>MOLECULE
2iyp_NAP_3_ligand
   73    77     1     0     0
SMALL
NO_CHARGES


@<TRIPOS>ATOM
      1 PA         -1.2880   -8.8410   65.9210 P.3       1 NAP1470     0.0000 
      2 O1A        -1.0510   -7.5580   66.6370 O.co2     1 NAP1470     0.0000 
      3 O2A        -2.1870   -9.7870   66.6460 O.co2     1 NAP1470     0.0000 
      4 O5B         0.1670   -9.4780   65.6130 O.3       1 NAP1470     0.0000 
      5 C5B         0.2110  -10.8310   65.2560 C.3       1 NAP1470     0.0000 
      6 C4B         1.2330  -11.0830   64.1690 C.3       1 NAP1470     0.0000 
      7 O4B         2.5320  -10.9990   64.7230 O.3       1 NAP1470     0.0000 
      8 C3B         1.0680  -12.5160   63.6980 C.3       1 NAP1470     0.0000 
      9 O3B         1.5220  -12.6650   62.3650 O.3       1 NAP1470     0.0000 
     10 C2B         1.9830  -13.2540   64.6560 C.3       1 NAP1470     0.0000 
     11 O2B         2.3860  -14.5190   64.1830 O.3       1 NAP1470     0.0000 
     12 C1B         3.1310  -12.2810   64.8420 C.3       1 NAP1470     0.0000 
     13 N9A         3.7120  -12.4470   66.1770 N.pl3     1 NAP1470     0.0000 
     14 C8A         3.0370  -12.3010   67.3590 C.2       1 NAP1470     0.0000 
     15 N7A         3.8970  -12.5250   68.3770 N.2       1 NAP1470     0.0000 
     16 C5A         5.1130  -12.8140   67.8640 C.ar      1 NAP1470     0.0000 
     17 C6A         6.3310  -13.1190   68.4750 C.ar      1 NAP1470     0.0000 
     18 N6A         6.4230  -13.1630   69.8070 N.pl3     1 NAP1470     0.0000 
     19 N1A         7.4360  -13.3780   67.6740 N.ar      1 NAP1470     0.0000 
     20 C2A         7.3180  -13.3280   66.2900 C.ar      1 NAP1470     0.0000 
     21 N3A         6.1020  -13.0200   65.6960 N.ar      1 NAP1470     0.0000 
     22 C4A         5.0140  -12.7680   66.4720 C.ar      1 NAP1470     0.0000 
     23 O3         -1.8510   -8.5680   64.4240 O.3       1 NAP1470     0.0000 
     24 PN         -2.6250   -7.3610   63.6600 P.3       1 NAP1470     0.0000 
     25 O1N        -3.2160   -6.4520   64.6780 O.co2     1 NAP1470     0.0000 
     26 O2N        -3.4890   -7.9730   62.6260 O.co2     1 NAP1470     0.0000 
     27 O5D        -1.4810   -6.5550   62.8480 O.3       1 NAP1470     0.0000 
     28 C5D        -0.1060   -6.5910   63.1680 C.3       1 NAP1470     0.0000 
     29 C4D         0.4670   -5.1760   63.3000 C.3       1 NAP1470     0.0000 
     30 O4D        -0.3040   -4.1740   62.6410 O.3       1 NAP1470     0.0000 
     31 C3D         0.5060   -4.8140   64.7690 C.3       1 NAP1470     0.0000 
     32 O3D         1.7590   -4.2260   65.0260 O.3       1 NAP1470     0.0000 
     33 C2D        -0.6480   -3.8320   64.9350 C.3       1 NAP1470     0.0000 
     34 O2D        -0.4160   -2.8820   65.9480 O.3       1 NAP1470     0.0000 
     35 C1D        -0.7720   -3.1920   63.5590 C.3       1 NAP1470     0.0000 
     36 N1N        -2.1300   -2.6940   63.2090 N.pl3     1 NAP1470     0.0000 
     37 C2N        -3.2900   -3.4050   63.4740 C.ar      1 NAP1470     0.0000 
     38 C3N        -4.5520   -2.8840   63.0930 C.ar      1 NAP1470     0.0000 
     39 C7N        -5.8700   -3.6230   63.3500 C.2       1 NAP1470     0.0000 
     40 O7N        -7.0990   -2.9260   63.2220 O.2       1 NAP1470     0.0000 
     41 N7N        -5.8870   -4.9250   63.6730 N.am      1 NAP1470     0.0000 
     42 C4N        -4.5900   -1.6370   62.4430 C.ar      1 NAP1470     0.0000 
     43 C5N        -3.4280   -0.9290   62.1900 C.ar      1 NAP1470     0.0000 
     44 C6N        -2.2070   -1.4730   62.5770 C.ar      1 NAP1470     0.0000 
     45 P2B         1.6650  -15.8460   64.7590 P.3       1 NAP1470     0.0000 
     46 O1X         0.5480  -16.3220   63.8470 O.co2     1 NAP1470     0.0000 
     47 O2X         2.7750  -16.8720   64.8370 O.co2     1 NAP1470     0.0000 
     48 O3X         1.0510  -15.5600   66.1170 O.co2     1 NAP1470     0.0000 
     49 H          -0.7674  -11.1941   64.8833 H         1 NAP1470     0.0000 
     50 H           0.4733  -11.4790   66.1159 H         1 NAP1470     0.0000 
     51 H           1.0803  -10.4315   63.3650 H         1 NAP1470     0.0000 
     52 H           0.0816  -12.8190   63.8711 H         1 NAP1470     0.0000 
     53 H           1.4590  -13.3023   65.6097 H         1 NAP1470     0.0000 
     54 H           3.8438  -12.4536   64.0797 H         1 NAP1470     0.0000 
     55 H           2.1045  -12.0760   67.4406 H         1 NAP1470     0.0000 
     56 H           5.5776  -12.9903   70.3124 H         1 NAP1470     0.0000 
     57 H           7.3290  -13.3647   70.1791 H         1 NAP1470     0.0000 
     58 H           8.1427  -13.5218   65.6993 H         1 NAP1470     0.0000 
     59 H           0.4856   -7.1129   62.3965 H         1 NAP1470     0.0000 
     60 H           0.0840   -7.1112   64.1224 H         1 NAP1470     0.0000 
     61 H           1.4892   -5.1876   62.9462 H         1 NAP1470     0.0000 
     62 H           0.3074   -5.6828   65.3295 H         1 NAP1470     0.0000 
     63 H          -1.5424   -4.4179   65.0922 H         1 NAP1470     0.0000 
     64 H          -0.0632   -2.3415   63.5495 H         1 NAP1470     0.0000 
     65 H          -3.2496   -4.3151   63.9481 H         1 NAP1470     0.0000 
     66 H          -4.9969   -5.3783   63.7200 H         1 NAP1470     0.0000 
     67 H          -6.7882   -5.3257   63.8379 H         1 NAP1470     0.0000 
     68 H          -5.5048   -1.2520   62.1537 H         1 NAP1470     0.0000 
     69 H          -3.4625   -0.0186   61.7254 H         1 NAP1470     0.0000 
     70 H          -1.3346   -0.9393   62.3812 H         1 NAP1470     0.0000 
     71 H           1.6430  -13.6499   62.2415 H         1 NAP1470     0.0000 
     72 H           2.3277   -4.9709   65.3750 H         1 NAP1470     0.0000 
     73 H           0.5788   -2.8416   66.0419 H         1 NAP1470     0.0000 
@<TRIPOS>BOND
     1    2    1 ar   
     2    3    1 ar   
     3    4    1 1    
     4   23    1 1    
     5    5    4 1    
     6    6    5 1    
     7   49    5 1    
     8   50    5 1    
     9    7    6 1    
    10    8    6 1    
    11   51    6 1    
    12   12    7 1    
    13    9    8 1    
    14   10    8 1    
    15   52    8 1    
    16   71    9 1    
    17   11   10 1    
    18   12   10 1    
    19   53   10 1    
    20   45   11 1    
    21   13   12 1    
    22   54   12 1    
    23   14   13 1    
    24   22   13 1    
    25   15   14 2    
    26   55   14 1    
    27   16   15 1    
    28   17   16 ar   
    29   22   16 ar   
    30   18   17 1    
    31   19   17 ar   
    32   56   18 1    
    33   57   18 1    
    34   20   19 ar   
    35   21   20 ar   
    36   58   20 1    
    37   22   21 ar   
    38   24   23 1    
    39   25   24 ar   
    40   26   24 ar   
    41   27   24 1    
    42   28   27 1    
    43   29   28 1    
    44   59   28 1    
    45   60   28 1    
    46   30   29 1    
    47   31   29 1    
    48   61   29 1    
    49   35   30 1    
    50   32   31 1    
    51   33   31 1    
    52   62   31 1    
    53   72   32 1    
    54   34   33 1    
    55   35   33 1    
    56   63   33 1    
    57   73   34 1    
    58   36   35 1    
    59   64   35 1    
    60   37   36 ar   
    61   44   36 ar   
    62   38   37 ar   
    63   65   37 1    
    64   39   38 1    
    65   42   38 ar   
    66   40   39 2    
    67   41   39 am   
    68   66   41 1    
    69   67   41 1    
    70   43   42 ar   
    71   68   42 1    
    72   44   43 ar   
    73   69   43 1    
    74   70   44 1    
    75   46   45 ar   
    76   47   45 ar   
    77   48   45 ar   
@<TRIPOS>SUBSTRUCTURE
     1 NAP1470     1 GROUP   
@<TRIPOS>SET

