#    Name: 3qwj_X6A_1_INTS_M
#    Modification time : Tue Mar 25 10:19:35 2014

@<TRIPOS>MOLECULE
3qwj_X6A_1_INTS_M
   43     0     9     0     0
SMALL
NO_CHARGES


@<TRIPOS>ATOM
      1 O         -36.4270  -82.5370  -48.5635 O.2       1 ALC1        0.0000 
      2 O         -37.4410  -81.8460  -47.7070 O.2       7 ALL1        0.0000 
      3 O         -35.4130  -83.2280  -49.4200 O.2       4 ALP1        0.0000 
      4 O         -39.9820  -82.0255  -52.1340 O.2       1 ALC1        0.0000 
      5 O         -40.0510  -81.3750  -50.8530 O.2       7 ALL1        0.0000 
      6 O         -39.9130  -82.6760  -53.4150 O.2       4 ALP1        0.0000 
      7 O         -36.0710  -86.7515  -42.5730 O.2       1 ALC1        0.0000 
      8 O         -35.6100  -85.1330  -42.7900 O.2       7 ALL1        0.0000 
      9 O         -36.5320  -88.3700  -42.3560 O.2       4 ALP1        0.0000 
     10 CA        -36.2560  -79.6615  -47.6805 C.3       3 GLC5        0.0000 
     11 CA        -36.2640  -81.4770  -46.8680 C.3       9 GLL5        0.0000 
     12 CA        -36.2480  -77.8460  -48.4930 C.3       6 GLP5        0.0000 
     13 CA        -37.5415  -83.8080  -43.6710 C.3       3 GLC5        0.0000 
     14 CA        -35.7560  -84.3020  -43.7370 C.3       9 GLL5        0.0000 
     15 CA        -39.3270  -83.3140  -43.6050 C.3       6 GLP5        0.0000 
     16 CA        -34.4245  -84.1065  -47.4565 C.3       3 GLC5        0.0000 
     17 CA        -35.9270  -83.8610  -46.0070 C.3       9 GLL5        0.0000 
     18 CA        -32.9220  -84.3520  -48.9060 C.3       6 GLP5        0.0000 
     19 N         -37.4425  -83.1230  -50.9300 N.am      2 SEC2        0.0000 
     20 N         -38.4910  -82.7100  -49.9740 N.am      8 SEL2        0.0000 
     21 N         -36.3940  -83.5360  -51.8860 N.am      5 SEP2        0.0000 
     22 CA        -40.0020  -81.7215  -43.9435 C.3       3 GLC5        0.0000 
     23 CA        -40.6770  -80.1290  -44.2820 C.3       9 GLL5        0.0000 
     24 CA        -42.5845  -80.8165  -44.0875 C.3       3 GLC5        0.0000 
     25 CA        -44.4920  -81.5040  -43.8930 C.3       6 GLP5        0.0000 
     26 CA        -41.1280  -82.6625  -49.0315 C.3       3 GLC5        0.0000 
     27 CA        -40.9880  -81.0090  -48.2290 C.3       9 GLL5        0.0000 
     28 CA        -41.9360  -84.0940  -49.6920 C.3       6 GLP5        0.0000 
     29 CA        -39.6160  -83.2250  -46.9838 C.3       3 GLC5        0.0000 
     30 CA        -39.6520  -81.4530  -48.5130 C.3       9 GLL5        0.0000 
     31 CA        -40.0720  -84.9980  -45.9760 C.3       6 GLP5        0.0000 
     32 CA        -38.5430  -80.1630  -49.1093 C.3       3 GLC5        0.0000 
     33 CA        -38.6680  -81.4510  -47.4700 C.3       9 GLL5        0.0000 
     34 CA        -37.5920  -78.9850  -50.2980 C.3       6 GLP5        0.0000 
     35 CA        -39.5180  -82.0600  -44.8173 C.3       3 GLC5        0.0000 
     36 CA        -39.0550  -81.0200  -46.1710 C.3       9 GLL5        0.0000 
     37 CA        -42.1112  -81.8894  -46.1399 C.3       3 GLC5        0.0000 
     38 CA        -40.3630  -80.5920  -45.8880 C.3       9 GLL5        0.0000 
     39 CA        -43.4520  -83.0880  -45.5470 C.3       6 GLP5        0.0000 
     40 CA        -34.0865  -81.5910  -46.6830 C.3       3 GLC5        0.0000 
     41 CA        -32.0030  -81.1990  -47.0470 C.3       6 GLP5        0.0000 
     42 CA        -37.6607  -83.1980  -44.5784 C.3       3 GLC5        0.0000 
     43 CA        -36.0760  -82.4890  -45.7700 C.3       9 GLL5        0.0000 
@<TRIPOS>BOND
@<TRIPOS>SUBSTRUCTURE
     1 ALC1        1 GROUP        1 X    ALC  0     ROOT ALC X 1
     2 SEC2       19 GROUP        1 X    SEC  0     **** SEC X 2
     3 GLC5       10 GROUP        1 X    GLC  0     **** GLC X 6
     4 ALP1        3 GROUP        1 Y    ALP  0     ROOT ALP Y 8
     5 SEP2       21 GROUP        1 Y    SEP  0     **** SEP Y 9
     6 GLP5       12 GROUP        1 Y    GLP  0     **** GLP Y 13
     7 ALL1        2 GROUP        1 Z    ALL  0     ROOT ALL Z 15
     8 SEL2       20 GROUP        1 Z    SEL  0     **** SEL Z 16
     9 GLL5       11 GROUP        1 Z    GLL  0     **** GLL Z 20
@<TRIPOS>SET

