#    Name: 3qwj_X6A_1_ligand
#    Modification time : Tue Mar 25 10:19:35 2014

@<TRIPOS>MOLECULE
3qwj_X6A_1_ligand
   33    34     1     0     0
SMALL
NO_CHARGES


@<TRIPOS>ATOM
      1 N01       -37.4410  -81.8460  -47.7070 N.pl3     1 X6A483      0.0000 
      2 N02       -40.0510  -81.3750  -50.8530 N.am      1 X6A483      0.0000 
      3 N03       -35.8920  -82.9930  -43.3940 N.ar      1 X6A483      0.0000 
      4 N04       -35.7640  -84.7910  -45.0100 N.ar      1 X6A483      0.0000 
      5 N05       -42.5940  -80.1710  -46.7250 N.pl3     1 X6A483      0.0000 
      6 N06       -35.6100  -85.1330  -42.7900 N.pl3     1 X6A483      0.0000 
      7 C07       -40.9880  -81.0090  -48.2290 C.ar      1 X6A483      0.0000 
      8 C08       -39.6520  -81.4530  -48.5130 C.ar      1 X6A483      0.0000 
      9 C09       -38.6680  -81.4510  -47.4700 C.ar      1 X6A483      0.0000 
     10 C10       -39.0550  -81.0200  -46.1710 C.ar      1 X6A483      0.0000 
     11 C11       -40.3630  -80.5920  -45.8880 C.ar      1 X6A483      0.0000 
     12 C12       -41.3680  -80.5700  -46.9260 C.ar      1 X6A483      0.0000 
     13 C13       -39.3560  -81.8750  -49.7860 C.2       1 X6A483      0.0000 
     14 C14       -36.2640  -81.4770  -46.8680 C.3       1 X6A483      0.0000 
     15 C15       -36.0760  -82.4890  -45.7700 C.ar      1 X6A483      0.0000 
     16 C16       -36.0480  -82.1170  -44.4230 C.ar      1 X6A483      0.0000 
     17 C17       -35.7560  -84.3020  -43.7370 C.ar      1 X6A483      0.0000 
     18 C18       -35.9270  -83.8610  -46.0070 C.ar      1 X6A483      0.0000 
     19 O19       -38.4910  -82.7100  -49.9740 O.2       1 X6A483      0.0000 
     20 O20       -43.0070  -79.7370  -45.5610 O.2       1 X6A483      0.0000 
     21 O21       -43.4650  -80.1860  -47.7000 O.2       1 X6A483      0.0000 
     22 CL22      -40.6770  -80.1290  -44.2820 Cl        1 X6A483      0.0000 
     23 H         -37.1942  -82.4671  -48.5269 H         1 X6A483      0.0000 
     24 H         -39.8116  -81.7498  -51.7487 H         1 X6A483      0.0000 
     25 H         -40.7374  -80.6786  -50.6437 H         1 X6A483      0.0000 
     26 H         -35.5593  -86.0963  -43.0538 H         1 X6A483      0.0000 
     27 H         -35.5593  -84.7463  -41.8692 H         1 X6A483      0.0000 
     28 H         -41.6827  -81.0091  -48.9841 H         1 X6A483      0.0000 
     29 H         -38.3467  -81.0245  -45.4167 H         1 X6A483      0.0000 
     30 H         -36.4180  -80.4901  -46.4270 H         1 X6A483      0.0000 
     31 H         -35.3643  -81.4432  -47.4859 H         1 X6A483      0.0000 
     32 H         -36.1563  -81.0846  -44.2055 H         1 X6A483      0.0000 
     33 H         -35.9423  -84.1869  -47.0103 H         1 X6A483      0.0000 
@<TRIPOS>BOND
     1    9    1 1    
     2   14    1 1    
     3   23    1 1    
     4   13    2 am   
     5   24    2 1    
     6   25    2 1    
     7   16    3 ar   
     8   17    3 ar   
     9   17    4 ar   
    10   18    4 ar   
    11   12    5 1    
    12   20    5 2    
    13   21    5 2    
    14   17    6 1    
    15   26    6 1    
    16   27    6 1    
    17    8    7 ar   
    18   12    7 ar   
    19   28    7 1    
    20    9    8 ar   
    21   13    8 1    
    22   10    9 ar   
    23   11   10 ar   
    24   29   10 1    
    25   12   11 ar   
    26   22   11 1    
    27   19   13 2    
    28   15   14 1    
    29   30   14 1    
    30   31   14 1    
    31   16   15 ar   
    32   18   15 ar   
    33   32   16 1    
    34   33   18 1    
@<TRIPOS>SUBSTRUCTURE
     1 X6A483      1 GROUP   
@<TRIPOS>SET

