#    Name: 3vn2_TLS_1_INTS_M
#    Modification time : Tue Mar 25 01:10:43 2014

@<TRIPOS>MOLECULE
3vn2_TLS_1_INTS_M
   91     0     6     0     0
SMALL
NO_CHARGES


@<TRIPOS>ATOM
      1 CA         48.9460   21.2695   24.1180 C.3       2 GLC5        0.0000 
      2 CA         47.6630   20.1930   24.6160 C.3       6 GLL5        0.0000 
      3 CA         50.2290   22.3460   23.6200 C.3       4 GLP5        0.0000 
      4 N          49.0945   17.1015   26.9055 N.am      1 SEC2        0.0000 
      5 N          47.5600   17.3060   26.8080 N.am      5 SEL2        0.0000 
      6 N          50.6290   16.8970   27.0030 N.am      3 SEP2        0.0000 
      7 CA         46.5465   16.9655   24.2500 C.3       2 GLC5        0.0000 
      8 CA         48.2980   17.2720   24.3740 C.3       6 GLL5        0.0000 
      9 CA         44.7950   16.6590   24.1260 C.3       4 GLP5        0.0000 
     10 CA         46.1125   17.1440   31.6510 C.3       2 GLC5        0.0000 
     11 CA         46.7370   16.9560   29.6900 C.3       6 GLL5        0.0000 
     12 CA         45.4880   17.3320   33.6120 C.3       4 GLP5        0.0000 
     13 CA         46.8545   15.4295   30.8705 C.3       2 GLC5        0.0000 
     14 CA         46.9720   13.9030   32.0510 C.3       4 GLP5        0.0000 
     15 CA         46.1000   15.4525   28.5205 C.3       2 GLC5        0.0000 
     16 CA         45.4630   13.9490   27.3510 C.3       4 GLP5        0.0000 
     17 CA         45.1020   18.8255   24.0960 C.3       2 GLC5        0.0000 
     18 CA         45.4090   20.9920   24.0660 C.3       6 GLL5        0.0000 
     19 CA         43.6090   21.3795   25.9760 C.3       2 GLC5        0.0000 
     20 CA         44.4420   21.9590   24.0620 C.3       6 GLL5        0.0000 
     21 CA         42.7760   20.8000   27.8900 C.3       4 GLP5        0.0000 
     22 CA         45.2445   20.3155   32.7075 C.3       2 GLC5        0.0000 
     23 CA         45.5470   20.9220   31.8160 C.3       6 GLL5        0.0000 
     24 CA         44.9420   19.7090   33.5990 C.3       4 GLP5        0.0000 
     25 CA         47.0610   21.4745   32.4125 C.3       2 GLC5        0.0000 
     26 CA         48.5750   22.0270   33.0090 C.3       4 GLP5        0.0000 
     27 CA         44.7395   25.3775   34.3845 C.3       2 GLC5        0.0000 
     28 CA         44.2260   25.0960   32.3080 C.3       6 GLL5        0.0000 
     29 CA         45.2530   25.6590   36.4610 C.3       4 GLP5        0.0000 
     30 CA         43.5360   25.0770   22.2770 C.3       2 GLC5        0.0000 
     31 CA         42.4780   24.1840   23.9030 C.3       6 GLL5        0.0000 
     32 CA         44.5940   25.9700   20.6510 C.3       4 GLP5        0.0000 
     33 CA         44.9493   16.6265   29.5203 C.3       2 GLC5        0.0000 
     34 CA         46.7180   18.2300   28.9430 C.3       6 GLL5        0.0000 
     35 CA         43.1710   15.6600   29.7240 C.3       4 GLP5        0.0000 
     36 CA         48.1483   17.4085   30.7483 C.3       2 GLC5        0.0000 
     37 CA         49.5690   17.2240   32.1800 C.3       4 GLP5        0.0000 
     38 CA         48.4550   17.1187   22.5205 C.3       2 GLC5        0.0000 
     39 CA         48.0680   17.4870   20.6500 C.3       4 GLP5        0.0000 
     40 CA         47.7155   15.0002   24.8030 C.3       2 GLC5        0.0000 
     41 CA         46.5890   13.2500   25.2150 C.3       4 GLP5        0.0000 
     42 CA         44.5819   20.4250   28.3780 C.3       2 GLC5        0.0000 
     43 CA         46.6480   20.7080   27.5530 C.3       6 GLL5        0.0000 
     44 CA         51.3320   16.2137   23.9875 C.3       2 GLC5        0.0000 
     45 CA         49.3860   16.2290   24.4080 C.3       6 GLL5        0.0000 
     46 CA         52.6410   15.8020   23.5780 C.3       4 GLP5        0.0000 
     47 CA         50.6080   16.1792   25.9415 C.3       2 GLC5        0.0000 
     48 CA         50.6600   17.0220   24.3860 C.3       6 GLL5        0.0000 
     49 CA         51.1930   15.7330   27.4860 C.3       4 GLP5        0.0000 
     50 CA         46.9919   20.7501   22.5847 C.3       2 GLC5        0.0000 
     51 CA         46.6380   21.2680   24.6220 C.3       6 GLL5        0.0000 
     52 CA         47.7040   20.6390   20.8270 C.3       4 GLP5        0.0000 
     53 CA         46.4642   24.0970   23.6067 C.3       2 GLC5        0.0000 
     54 CA         46.9190   22.5070   25.1590 C.3       6 GLL5        0.0000 
     55 CA         46.5090   25.2150   22.0520 C.3       4 GLP5        0.0000 
     56 CA         43.3697   22.2320   32.0623 C.3       2 GLC5        0.0000 
     57 CA         45.0460   23.2380   31.1780 C.3       6 GLL5        0.0000 
     58 CA         41.9270   20.9600   32.3530 C.3       4 GLP5        0.0000 
     59 CA         46.6167   24.5665   31.1240 C.3       2 GLC5        0.0000 
     60 CA         45.1730   23.9180   29.9920 C.3       6 GLL5        0.0000 
     61 CA         48.1240   25.5550   31.6630 C.3       4 GLP5        0.0000 
     62 CA         45.9341   24.7750   25.7744 C.3       2 GLC5        0.0000 
     63 CA         44.6730   23.1990   24.6180 C.3       6 GLL5        0.0000 
     64 CA         46.3220   26.4610   26.6590 C.3       4 GLP5        0.0000 
     65 CA         46.2632   24.9940   31.9998 C.3       2 GLC5        0.0000 
     66 CA         43.7381   23.4675   29.1713 C.3       2 GLC5        0.0000 
     67 CA         42.5240   22.5220   28.0670 C.3       4 GLP5        0.0000 
     68 CA         43.4883   27.1118   30.1100 C.3       2 GLC5        0.0000 
     69 CA         44.7950   25.2480   29.9660 C.3       6 GLL5        0.0000 
     70 CA         42.4110   28.6950   29.6680 C.3       4 GLP5        0.0000 
     71 CA         46.3448   25.5418   31.1075 C.3       2 GLC5        0.0000 
     72 CA         44.3360   25.8090   31.1380 C.3       6 GLL5        0.0000 
     73 CA         45.2906   24.2918   23.2915 C.3       2 GLC5        0.0000 
     74 CA         43.5870   24.1580   24.7220 C.3       6 GLL5        0.0000 
     75 CA         44.6208   26.0370   25.2920 C.3       2 GLC5        0.0000 
     76 CA         45.6460   27.4630   25.3410 C.3       4 GLP5        0.0000 
     77 CA         42.3310   25.2628   31.3040 C.3       2 GLC5        0.0000 
     78 CA         40.3810   25.0730   30.8850 C.3       4 GLP5        0.0000 
     79 CA         43.2450   26.6822   32.9040 C.3       2 GLC5        0.0000 
     80 CA         42.2090   27.9120   34.0850 C.3       4 GLP5        0.0000 
     81 CA         45.3035   26.3445   29.3373 C.3       2 GLC5        0.0000 
     82 CA         45.9470   27.4930   28.1160 C.3       4 GLP5        0.0000 
     83 CA         42.9140   23.2266   26.1767 C.3       2 GLC5        0.0000 
     84 CA         42.8140   24.0217   26.9780 C.3       2 GLC5        0.0000 
     85 CA         43.6040   25.0640   25.7640 C.3       6 GLL5        0.0000 
     86 CA         39.8500   26.1212   24.1245 C.3       2 GLC5        0.0000 
     87 CA         41.5050   25.9770   25.2010 C.3       6 GLL5        0.0000 
     88 CA         38.2160   26.7140   23.5680 C.3       4 GLP5        0.0000 
     89 CA         41.8648   27.7985   24.7263 C.3       2 GLC5        0.0000 
     90 CA         41.6750   29.6190   23.8450 C.3       4 GLP5        0.0000 
     91 CA         43.8503   26.7205   25.4743 C.3       2 GLC5        0.0000 
@<TRIPOS>BOND
@<TRIPOS>SUBSTRUCTURE
     1 SEC2        4 GROUP        1 X    SEC  0     ROOT SEC X 2
     2 GLC5        1 GROUP        1 X    GLC  0     **** GLC X 6
     3 SEP2        6 GROUP        1 Y    SEP  0     ROOT SEP Y 9
     4 GLP5        3 GROUP        1 Y    GLP  0     **** GLP Y 13
     5 SEL2        5 GROUP        1 Z    SEL  0     ROOT SEL Z 16
     6 GLL5        2 GROUP        1 Z    GLL  0     **** GLL Z 20
@<TRIPOS>SET

