#    Name: 3vn2_TLS_1_ligand
#    Modification time : Tue Mar 25 01:10:43 2014

@<TRIPOS>MOLECULE
3vn2_TLS_1_ligand
   68    73     1     0     0
SMALL
NO_CHARGES


@<TRIPOS>ATOM
      1 C1         47.0550   19.5180   26.9820 C.ar      1 TLS501      0.0000 
      2 N2         47.5010   19.2310   25.7230 N.pl3     1 TLS501      0.0000 
      3 C3         47.1050   18.3040   27.6280 C.ar      1 TLS501      0.0000 
      4 C4         46.6480   20.7080   27.5530 C.ar      1 TLS501      0.0000 
      5 C5         47.8020   17.8890   25.6520 C.2       1 TLS501      0.0000 
      6 C6         47.6630   20.1930   24.6160 C.3       1 TLS501      0.0000 
      7 N7         47.5600   17.3060   26.8080 N.2       1 TLS501      0.0000 
      8 C8         46.7180   18.2300   28.9430 C.ar      1 TLS501      0.0000 
      9 C9         46.2750   20.6500   28.8750 C.ar      1 TLS501      0.0000 
     10 C10        48.2980   17.2720   24.3740 C.3       1 TLS501      0.0000 
     11 C11        46.6380   21.2680   24.6220 C.ar      1 TLS501      0.0000 
     12 C12        46.3140   19.4210   29.5180 C.ar      1 TLS501      0.0000 
     13 C13        46.7370   16.9560   29.6900 C.3       1 TLS501      0.0000 
     14 C14        45.8340   21.8920   29.5340 C.2       1 TLS501      0.0000 
     15 C15        49.3860   16.2290   24.4080 C.3       1 TLS501      0.0000 
     16 C16        45.4090   20.9920   24.0660 C.ar      1 TLS501      0.0000 
     17 C17        46.9190   22.5070   25.1590 C.ar      1 TLS501      0.0000 
     18 N18        45.4810   21.9880   30.8550 N.pl3     1 TLS501      0.0000 
     19 N19        45.6520   23.0890   28.9990 N.2       1 TLS501      0.0000 
     20 C20        50.6600   17.0220   24.3860 C.3       1 TLS501      0.0000 
     21 C21        44.4420   21.9590   24.0620 C.ar      1 TLS501      0.0000 
     22 C22        45.9200   23.4510   25.1640 C.ar      1 TLS501      0.0000 
     23 C23        45.0460   23.2380   31.1780 C.ar      1 TLS501      0.0000 
     24 C24        45.5470   20.9220   31.8160 C.3       1 TLS501      0.0000 
     25 C25        45.1730   23.9180   29.9920 C.ar      1 TLS501      0.0000 
     26 C26        44.6730   23.1990   24.6180 C.ar      1 TLS501      0.0000 
     27 C27        44.5790   23.7700   32.3650 C.ar      1 TLS501      0.0000 
     28 C28        44.7950   25.2480   29.9660 C.ar      1 TLS501      0.0000 
     29 C29        43.5870   24.1580   24.7220 C.ar      1 TLS501      0.0000 
     30 C30        44.2260   25.0960   32.3080 C.ar      1 TLS501      0.0000 
     31 C31        44.3360   25.8090   31.1380 C.ar      1 TLS501      0.0000 
     32 C32        42.4780   24.1840   23.9030 C.ar      1 TLS501      0.0000 
     33 C33        43.6040   25.0640   25.7640 C.ar      1 TLS501      0.0000 
     34 C34        41.4630   25.0800   24.1610 C.ar      1 TLS501      0.0000 
     35 C35        42.3000   23.2730   22.7540 C.2       1 TLS501      0.0000 
     36 C36        42.6040   25.9790   26.0140 C.ar      1 TLS501      0.0000 
     37 C37        41.5050   25.9770   25.2010 C.ar      1 TLS501      0.0000 
     38 O38        41.1380   22.8040   22.6810 O.co2     1 TLS501      0.0000 
     39 O39        43.2620   23.0310   21.9660 O.co2     1 TLS501      0.0000 
     40 H          46.6268   21.5666   27.0288 H         1 TLS501      0.0000 
     41 H          47.6202   19.6547   23.6472 H         1 TLS501      0.0000 
     42 H          48.6716   20.6515   24.6674 H         1 TLS501      0.0000 
     43 H          48.6323   18.1079   23.6816 H         1 TLS501      0.0000 
     44 H          47.4075   16.8349   23.8209 H         1 TLS501      0.0000 
     45 H          46.0066   19.3947   30.5402 H         1 TLS501      0.0000 
     46 H          49.3229   15.6101   23.5405 H         1 TLS501      0.0000 
     47 H          49.3196   15.6645   25.3116 H         1 TLS501      0.0000 
     48 H          45.2238   20.0645   23.6579 H         1 TLS501      0.0000 
     49 H          47.8413   22.7143   25.5405 H         1 TLS501      0.0000 
     50 H          43.5139   21.7599   23.6328 H         1 TLS501      0.0000 
     51 H          46.1028   24.3872   25.5912 H         1 TLS501      0.0000 
     52 H          44.5054   23.2270   33.1996 H         1 TLS501      0.0000 
     53 H          44.8546   25.7920   29.1094 H         1 TLS501      0.0000 
     54 H          43.8695   25.5690   33.1640 H         1 TLS501      0.0000 
     55 H          44.0591   26.8234   31.1357 H         1 TLS501      0.0000 
     56 H          44.4432   25.0543   26.4150 H         1 TLS501      0.0000 
     57 H          40.6180   25.0756   23.5318 H         1 TLS501      0.0000 
     58 H          42.6870   26.6406   26.7895 H         1 TLS501      0.0000 
     59 H          40.7301   26.6270   25.3605 H         1 TLS501      0.0000 
     60 H          47.6550   16.5613   29.7279 H         1 TLS501      0.0000 
     61 H          46.4297   17.0745   30.6342 H         1 TLS501      0.0000 
     62 H          46.1406   16.2711   29.2714 H         1 TLS501      0.0000 
     63 H          51.4660   16.4304   24.4032 H         1 TLS501      0.0000 
     64 H          50.7302   17.5893   23.5655 H         1 TLS501      0.0000 
     65 H          50.7295   17.6350   25.1730 H         1 TLS501      0.0000 
     66 H          46.4781   20.5720   31.9191 H         1 TLS501      0.0000 
     67 H          45.2436   21.2189   32.7214 H         1 TLS501      0.0000 
     68 H          44.9705   20.1484   31.5528 H         1 TLS501      0.0000 
@<TRIPOS>BOND
     1    2    1 1    
     2    3    1 ar   
     3    4    1 ar   
     4    5    2 1    
     5    6    2 1    
     6    7    3 1    
     7    8    3 ar   
     8    9    4 ar   
     9   40    4 1    
    10    7    5 2    
    11   10    5 1    
    12   11    6 1    
    13   41    6 1    
    14   42    6 1    
    15   12    8 ar   
    16   13    8 1    
    17   12    9 ar   
    18   14    9 1    
    19   15   10 1    
    20   43   10 1    
    21   44   10 1    
    22   16   11 ar   
    23   17   11 ar   
    24   45   12 1    
    25   60   13 1    
    26   61   13 1    
    27   62   13 1    
    28   18   14 1    
    29   19   14 2    
    30   20   15 1    
    31   46   15 1    
    32   47   15 1    
    33   21   16 ar   
    34   48   16 1    
    35   22   17 ar   
    36   49   17 1    
    37   23   18 1    
    38   24   18 1    
    39   25   19 1    
    40   63   20 1    
    41   64   20 1    
    42   65   20 1    
    43   26   21 ar   
    44   50   21 1    
    45   26   22 ar   
    46   51   22 1    
    47   25   23 ar   
    48   27   23 ar   
    49   66   24 1    
    50   67   24 1    
    51   68   24 1    
    52   28   25 ar   
    53   29   26 1    
    54   30   27 ar   
    55   52   27 1    
    56   31   28 ar   
    57   53   28 1    
    58   32   29 ar   
    59   33   29 ar   
    60   31   30 ar   
    61   54   30 1    
    62   55   31 1    
    63   34   32 ar   
    64   35   32 1    
    65   36   33 ar   
    66   56   33 1    
    67   37   34 ar   
    68   57   34 1    
    69   38   35 ar   
    70   39   35 ar   
    71   37   36 ar   
    72   58   36 1    
    73   59   37 1    
@<TRIPOS>SUBSTRUCTURE
     1 TLS501      1 GROUP   
@<TRIPOS>SET

