#    Name: 3hdm_MMG_1_INTS_M
#    Modification time : Tue Mar 25 13:58:49 2014

@<TRIPOS>MOLECULE
3hdm_MMG_1_INTS_M
   58     0    12     0     0
SMALL
NO_CHARGES


@<TRIPOS>ATOM
      1 CA         35.8785   28.9515   68.1345 C.3       4 GLC5        0.0000 
      2 CA         36.6620   30.0730   66.5510 C.3      12 GLL5        0.0000 
      3 CA         35.0950   27.8300   69.7180 C.3       8 GLP5        0.0000 
      4 CA         35.7390   27.4465   66.2020 C.3       4 GLC5        0.0000 
      5 CA         36.6060   29.1700   65.5130 C.3      12 GLL5        0.0000 
      6 CA         34.8720   25.7230   66.8910 C.3       8 GLP5        0.0000 
      7 CA         37.0125   34.2835   73.2160 C.3       4 GLC5        0.0000 
      8 CA         36.7560   34.6360   71.1520 C.3      12 GLL5        0.0000 
      9 CA         37.2690   33.9310   75.2800 C.3       8 GLP5        0.0000 
     10 CA         39.6445   32.7900   67.5250 C.3       4 GLC5        0.0000 
     11 CA         38.9790   31.4450   69.0670 C.3      12 GLL5        0.0000 
     12 CA         40.3100   34.1350   65.9830 C.3       8 GLP5        0.0000 
     13 CA         39.9910   30.6420   70.7455 C.3       4 GLC5        0.0000 
     14 CA         41.0030   29.8390   72.4240 C.3       8 GLP5        0.0000 
     15 CA         36.4835   35.4130   68.3565 C.3       4 GLC5        0.0000 
     16 CA         36.0990   34.1360   70.0480 C.3      12 GLL5        0.0000 
     17 CA         36.8680   36.6900   66.6650 C.3       8 GLP5        0.0000 
     18 CA         38.6135   31.9330   72.0815 C.3       4 GLC5        0.0000 
     19 CA         38.0660   33.0500   70.2730 C.3      12 GLL5        0.0000 
     20 CA         39.1610   30.8160   73.8900 C.3       8 GLP5        0.0000 
     21 O          39.1340   34.1750   72.1550 O.2       1 ALC1        0.0000 
     22 O          37.9410   33.9670   71.2710 O.2       9 ALL1        0.0000 
     23 O          40.3270   34.3830   73.0390 O.2       5 ALP1        0.0000 
     24 N          40.1955   31.7210   71.0275 N.am      2 SEC2        0.0000 
     25 N          39.1210   32.2490   70.1290 N.am     10 SEL2        0.0000 
     26 N          41.2700   31.1930   71.9260 N.am      6 SEP2        0.0000 
     27 NZ         30.5630   38.4005   68.1600 N.4       3 LYC4        0.0000 
     28 NZ         30.3780   36.9660   69.3570 N.4      11 LYL4        0.0000 
     29 NZ         30.7480   39.8350   66.9630 N.4       7 LYP4        0.0000 
     30 CA         37.1080   31.4637   65.5660 C.3       4 GLC5        0.0000 
     31 CA         37.5820   33.3060   65.1000 C.3       8 GLP5        0.0000 
     32 CA         33.0055   34.4460   71.0817 C.3       4 GLC5        0.0000 
     33 CA         34.2760   35.7290   70.3390 C.3      12 GLL5        0.0000 
     34 CA         32.3510   32.9050   71.9910 C.3       8 GLP5        0.0000 
     35 CA         33.8760   33.0910   70.3485 C.3       4 GLC5        0.0000 
     36 CA         34.0840   34.0980   68.6180 C.3      12 GLL5        0.0000 
     37 CA         33.3070   31.8050   71.5610 C.3       8 GLP5        0.0000 
     38 CA         32.4753   38.0605   69.2142 C.3       4 GLC5        0.0000 
     39 CA         33.0440   36.2450   70.0060 C.3      12 GLL5        0.0000 
     40 CA         32.2580   40.1610   68.9400 C.3       8 GLP5        0.0000 
     41 CA         37.2353   32.9995   67.0237 C.3       4 GLC5        0.0000 
     42 CA         36.9310   33.1240   69.4870 C.3      12 GLL5        0.0000 
     43 CA         32.4730   34.0225   70.3057 C.3       4 GLC5        0.0000 
     44 CA         32.3410   35.6750   68.9710 C.3      12 GLL5        0.0000 
     45 CA         36.3347   36.2300   71.3235 C.3       4 GLC5        0.0000 
     46 CA         36.2420   38.0740   72.0470 C.3       8 GLP5        0.0000 
     47 CA         34.9712   32.9690   71.0104 C.3       4 GLC5        0.0000 
     48 CA         37.3550   30.3522   69.7231 C.3       4 GLC5        0.0000 
     49 CA         37.9060   31.4020   68.2000 C.3      12 GLL5        0.0000 
     50 CA         36.2770   29.5180   71.0870 C.3       8 GLP5        0.0000 
     51 CA         35.2375   36.6977   70.9801 C.3       4 GLC5        0.0000 
     52 CA         34.8060   34.6560   69.6540 C.3      12 GLL5        0.0000 
     53 CA         37.8785   32.0476   66.3110 C.3       4 GLC5        0.0000 
     54 CA         38.5754   34.8538   69.9182 C.3       4 GLC5        0.0000 
     55 CA         39.8000   36.1160   69.4700 C.3       8 GLP5        0.0000 
     56 CA         36.8771   31.1947   70.3486 C.3       4 GLC5        0.0000 
     57 CA         34.0157   36.2672   67.9617 C.3       4 GLC5        0.0000 
     58 CA         34.4630   37.3670   66.6130 C.3       8 GLP5        0.0000 
@<TRIPOS>BOND
@<TRIPOS>SUBSTRUCTURE
     1 ALC1       21 GROUP        1 X    ALC  0     ROOT ALC X 1
     2 SEC2       24 GROUP        1 X    SEC  0     **** SEC X 2
     3 LYC4       27 GROUP        1 X    LYC  0     **** LYC X 4
     4 GLC5        1 GROUP        1 X    GLC  0     **** GLC X 6
     5 ALP1       23 GROUP        1 Y    ALP  0     ROOT ALP Y 8
     6 SEP2       26 GROUP        1 Y    SEP  0     **** SEP Y 9
     7 LYP4       29 GROUP        1 Y    LYP  0     **** LYP Y 11
     8 GLP5        3 GROUP        1 Y    GLP  0     **** GLP Y 13
     9 ALL1       22 GROUP        1 Z    ALL  0     ROOT ALL Z 15
    10 SEL2       25 GROUP        1 Z    SEL  0     **** SEL Z 16
    11 LYL4       28 GROUP        1 Z    LYL  0     **** LYL Z 18
    12 GLL5        2 GROUP        1 Z    GLL  0     **** GLL Z 20
@<TRIPOS>SET

