#    Name: 3hdm_MMG_1_ligand
#    Modification time : Tue Mar 25 13:58:49 2014

@<TRIPOS>MOLECULE
3hdm_MMG_1_ligand
   37    40     1     0     0
SMALL
NO_CHARGES


@<TRIPOS>ATOM
      1 C4         39.0200   29.8990   66.5850 C.ar      1 MMG500      0.0000 
      2 C5         36.6620   30.0730   66.5510 C.ar      1 MMG500      0.0000 
      3 C6         34.2760   35.7290   70.3390 C.ar      1 MMG500      0.0000 
      4 C7         34.0840   34.0980   68.6180 C.ar      1 MMG500      0.0000 
      5 C8         33.0440   36.2450   70.0060 C.ar      1 MMG500      0.0000 
      6 C10        36.8460   32.2620   68.4080 C.ar      1 MMG500      0.0000 
      7 C13        37.8680   30.4540   67.1030 C.ar      1 MMG500      0.0000 
      8 C15        32.3410   35.6750   68.9710 C.ar      1 MMG500      0.0000 
      9 C17        36.9310   33.1240   69.4870 C.ar      1 MMG500      0.0000 
     10 C20        31.0330   36.2380   68.6240 C.2       1 MMG500      0.0000 
     11 C1         37.7680   28.6270   65.0120 C.ar      1 MMG500      0.0000 
     12 C2         38.9780   28.9930   65.5500 C.ar      1 MMG500      0.0000 
     13 C3         36.6060   29.1700   65.5130 C.ar      1 MMG500      0.0000 
     14 C9         32.8490   34.6050   68.2700 C.ar      1 MMG500      0.0000 
     15 C11        36.7560   34.6360   71.1520 C.2       1 MMG500      0.0000 
     16 C12        38.9790   31.4450   69.0670 C.ar      1 MMG500      0.0000 
     17 C14        34.8060   34.6560   69.6540 C.ar      1 MMG500      0.0000 
     18 C16        37.9060   31.4020   68.2000 C.ar      1 MMG500      0.0000 
     19 C18        36.0990   34.1360   70.0480 C.2       1 MMG500      0.0000 
     20 C19        38.0660   33.0500   70.2730 C.ar      1 MMG500      0.0000 
     21 N21        37.9410   33.9670   71.2710 N.pl3     1 MMG500      0.0000 
     22 N22        39.1210   32.2490   70.1290 N.ar      1 MMG500      0.0000 
     23 O23        30.7070   35.8220   67.3760 O.co2     1 MMG500      0.0000 
     24 O24        30.3780   36.9660   69.3570 O.co2     1 MMG500      0.0000 
     25 H          39.9419   30.1730   66.9875 H         1 MMG500      0.0000 
     26 H          35.7793   30.4763   66.9270 H         1 MMG500      0.0000 
     27 H          34.8162   36.1542   71.1190 H         1 MMG500      0.0000 
     28 H          34.4734   33.2914   68.0976 H         1 MMG500      0.0000 
     29 H          32.6570   37.0426   70.5226 H         1 MMG500      0.0000 
     30 H          36.0391   32.2629   67.7969 H         1 MMG500      0.0000 
     31 H          37.7286   27.9486   64.2362 H         1 MMG500      0.0000 
     32 H          39.8532   28.5904   65.1799 H         1 MMG500      0.0000 
     33 H          35.6943   28.9005   65.1110 H         1 MMG500      0.0000 
     34 H          32.3165   34.1882   67.4973 H         1 MMG500      0.0000 
     35 H          36.4345   35.3256   71.7254 H         1 MMG500      0.0000 
     36 H          39.7842   30.7484   68.8528 H         1 MMG500      0.0000 
     37 H          38.5985   34.1251   71.9690 H         1 MMG500      0.0000 
@<TRIPOS>BOND
     1    7    1 ar   
     2   12    1 ar   
     3   25    1 1    
     4    7    2 ar   
     5   13    2 ar   
     6   26    2 1    
     7    5    3 ar   
     8   17    3 ar   
     9   27    3 1    
    10   14    4 ar   
    11   17    4 ar   
    12   28    4 1    
    13    8    5 ar   
    14   29    5 1    
    15    9    6 ar   
    16   18    6 ar   
    17   30    6 1    
    18   18    7 1    
    19   10    8 1    
    20   14    8 ar   
    21   19    9 1    
    22   20    9 ar   
    23   23   10 ar   
    24   24   10 ar   
    25   12   11 ar   
    26   13   11 ar   
    27   31   11 1    
    28   32   12 1    
    29   33   13 1    
    30   34   14 1    
    31   19   15 2    
    32   21   15 1    
    33   35   15 1    
    34   18   16 ar   
    35   22   16 ar   
    36   36   16 1    
    37   19   17 1    
    38   21   20 1    
    39   22   20 ar   
    40   37   21 1    
@<TRIPOS>SUBSTRUCTURE
     1 MMG500      1 GROUP   
@<TRIPOS>SET

