#    Name: 2v6o_FAD_1_INTS_M
#    Modification time : Tue Mar 25 01:05:16 2014

@<TRIPOS>MOLECULE
2v6o_FAD_1_INTS_M
  114     0     9     0     0
SMALL
NO_CHARGES


@<TRIPOS>ATOM
      1 N          20.9800    3.8045   16.5620 N.am      2 SEC2        0.0000 
      2 N          21.7170    4.8510   16.4070 N.am      8 SEL2        0.0000 
      3 N          20.2430    2.7580   16.7170 N.am      5 SEP2        0.0000 
      4 N          21.2020    3.8505   14.0210 N.am      2 SEC2        0.0000 
      5 N          21.1920    5.3630   14.0310 N.am      8 SEL2        0.0000 
      6 N          21.2120    2.3380   14.0110 N.am      5 SEP2        0.0000 
      7 CA         25.2695    7.2500   17.2770 C.3       3 GLC5        0.0000 
      8 CA         24.5240    5.9700   15.9300 C.3       9 GLL5        0.0000 
      9 CA         26.0150    8.5300   18.6240 C.3       6 GLP5        0.0000 
     10 CA         23.4040    6.8745   17.4515 C.3       3 GLC5        0.0000 
     11 CA         22.2840    7.7790   18.9730 C.3       6 GLP5        0.0000 
     12 CA         24.2640    3.1225   14.6585 C.3       3 GLC5        0.0000 
     13 CA         25.2650    3.6480   16.5570 C.3       9 GLL5        0.0000 
     14 CA         23.2630    2.5970   12.7600 C.3       6 GLP5        0.0000 
     15 O          28.1680    1.8685   17.7825 O.2       1 ALC1        0.0000 
     16 O          26.9220    2.0680   17.3460 O.2       7 ALL1        0.0000 
     17 O          29.4140    1.6690   18.2190 O.2       4 ALP1        0.0000 
     18 CA         28.0035    6.1040   16.1315 C.3       3 GLC5        0.0000 
     19 CA         27.4640    4.4080   17.1860 C.3       9 GLL5        0.0000 
     20 CA         28.5430    7.8000   15.0770 C.3       6 GLP5        0.0000 
     21 CA         31.3990    7.8810   19.1820 C.3       3 GLC5        0.0000 
     22 CA         31.0460    6.1440   20.0540 C.3       9 GLL5        0.0000 
     23 CA         31.7520    9.6180   18.3100 C.3       6 GLP5        0.0000 
     24 CA         32.6835    5.0090   21.0900 C.3       3 GLC5        0.0000 
     25 CA         34.3210    3.8740   22.1260 C.3       6 GLP5        0.0000 
     26 O          32.6720    7.2155   21.4355 O.2       1 ALC1        0.0000 
     27 O          31.3930    6.2390   21.3350 O.2       7 ALL1        0.0000 
     28 O          33.9510    8.1920   21.5360 O.2       4 ALP1        0.0000 
     29 N          33.4665    6.2665   19.3075 N.am      2 SEC2        0.0000 
     30 N          32.0350    6.1200   19.0870 N.am      8 SEL2        0.0000 
     31 N          34.8980    6.4130   19.5280 N.am      5 SEP2        0.0000 
     32 CA         31.7535    7.6490   18.0585 C.3       3 GLC5        0.0000 
     33 CA         31.7550    5.6800   17.8070 C.3       9 GLL5        0.0000 
     34 CA         33.0190    6.5815   16.2720 C.3       3 GLC5        0.0000 
     35 CA         34.2830    7.4830   14.7370 C.3       6 GLP5        0.0000 
     36 CA         31.5615    4.7875   15.9905 C.3       3 GLC5        0.0000 
     37 CA         31.3680    3.8950   14.1740 C.3       6 GLP5        0.0000 
     38 CA         32.1240    3.6915   17.9530 C.3       3 GLC5        0.0000 
     39 CA         32.4930    1.7030   18.0990 C.3       6 GLP5        0.0000 
     40 CA         33.4280    4.8400   18.7410 C.3       3 GLC5        0.0000 
     41 CA         35.1010    4.0000   19.6750 C.3       6 GLP5        0.0000 
     42 N          30.8465    3.8940   16.8220 N.am      2 SEC2        0.0000 
     43 N          30.4750    5.2640   17.4900 N.am      8 SEL2        0.0000 
     44 N          31.2180    2.5240   16.1540 N.am      5 SEP2        0.0000 
     45 CA         29.0175    6.5415   16.7530 C.3       3 GLC5        0.0000 
     46 CA         29.4920    5.2830   18.4290 C.3       9 GLL5        0.0000 
     47 N          13.1945    7.7730   11.3390 N.am      2 SEC2        0.0000 
     48 N          11.8660    7.0460   11.0420 N.am      8 SEL2        0.0000 
     49 N          14.5230    8.5000   11.6360 N.am      5 SEP2        0.0000 
     50 N          10.3810    1.4230   13.1240 N.am      2 SEC2        0.0000 
     51 N          11.5940    2.2620   13.4830 N.am      8 SEL2        0.0000 
     52 N           9.1680    0.5840   12.7650 N.am      5 SEP2        0.0000 
     53 CA         12.8330    1.2245   12.6425 C.3       3 GLC5        0.0000 
     54 CA         12.4030    1.9780   14.5630 C.3       9 GLL5        0.0000 
     55 CA         13.2630    0.4710   10.7220 C.3       6 GLP5        0.0000 
     56 CA         13.7930   -2.3540   18.0660 C.3       3 GLC5        0.0000 
     57 CA         13.2360   -1.0320   16.6540 C.3       9 GLL5        0.0000 
     58 CA         14.3500   -3.6760   19.4780 C.3       6 GLP5        0.0000 
     59 CA         13.7885   -2.7880   16.0710 C.3       3 GLC5        0.0000 
     60 CA         14.3410   -4.5440   15.4880 C.3       6 GLP5        0.0000 
     61 CA         12.1325   -1.2255   18.2105 C.3       3 GLC5        0.0000 
     62 CA         11.0290   -1.4190   19.7670 C.3       6 GLP5        0.0000 
     63 CA         15.0490    2.1560   19.5960 C.3       3 GLC5        0.0000 
     64 CA         14.7370    1.1570   18.0470 C.3       9 GLL5        0.0000 
     65 CA         15.3610    3.1550   21.1450 C.3       6 GLP5        0.0000 
     66 CA         13.8460    2.9900   12.8580 C.3       3 GLC5        0.0000 
     67 CA         13.3060    2.9340   15.0350 C.3       9 GLL5        0.0000 
     68 CA         14.3860    3.0460   10.6810 C.3       6 GLP5        0.0000 
     69 CA         16.4995    4.3375   12.5315 C.3       3 GLC5        0.0000 
     70 CA         15.5760    5.3910   14.2370 C.3       9 GLL5        0.0000 
     71 CA         17.4230    3.2840   10.8260 C.3       6 GLP5        0.0000 
     72 CA         14.9810    4.2185   12.4590 C.3       3 GLC5        0.0000 
     73 O          16.3150    8.5295   15.9830 O.2       1 ALC1        0.0000 
     74 O          15.7930    7.6700   14.9800 O.2       7 ALL1        0.0000 
     75 O          16.8370    9.3890   16.9860 O.2       4 ALP1        0.0000 
     76 O          16.5575    7.5925   16.4985 O.2       1 ALC1        0.0000 
     77 O          17.3220    7.5150   18.0170 O.2       4 ALP1        0.0000 
     78 CA         16.6905    7.5240   12.3505 C.3       3 GLC5        0.0000 
     79 CA         17.7690    6.6900   14.0370 C.3       9 GLL5        0.0000 
     80 CA         15.6120    8.3580   10.6640 C.3       6 GLP5        0.0000 
     81 N          18.9305    5.9125   12.2960 N.am      2 SEC2        0.0000 
     82 N          18.4450    5.4740   13.7960 N.am      8 SEL2        0.0000 
     83 N          19.4160    6.3510   10.7960 N.am      5 SEP2        0.0000 
     84 N          18.5375    3.8385   13.2315 N.am      2 SEC2        0.0000 
     85 N          18.6300    2.2030   12.6670 N.am      5 SEP2        0.0000 
     86 CA         18.5405    8.5645   16.8005 C.3       3 GLC5        0.0000 
     87 CA         18.7200    7.6350   14.7670 C.3       9 GLL5        0.0000 
     88 CA         18.3610    9.4940   18.8340 C.3       6 GLP5        0.0000 
     89 N          22.1310    9.1995   12.1875 N.am      2 SEC2        0.0000 
     90 N          22.2840    8.5880   13.5780 N.am      8 SEL2        0.0000 
     91 N          21.9780    9.8110   10.7970 N.am      5 SEP2        0.0000 
     92 N          20.0065   10.5525   16.3755 N.am      2 SEC2        0.0000 
     93 N          20.9850    9.7330   15.3650 N.am      8 SEL2        0.0000 
     94 N          19.0280   11.3720   17.3860 N.am      5 SEP2        0.0000 
     95 CA         26.8128    6.6273   15.4825 C.3       3 GLC5        0.0000 
     96 CA         24.6773    5.6508   13.8000 C.3       3 GLC5        0.0000 
     97 CA         25.6410    4.9390   15.8460 C.3       9 GLL5        0.0000 
     98 CA         24.2720    5.8470   11.7120 C.3       6 GLP5        0.0000 
     99 CA         29.9367    7.1580   21.5953 C.3       3 GLC5        0.0000 
    100 CA         29.7610    5.7220   19.7210 C.3       9 GLL5        0.0000 
    101 CA         29.4700    8.3830   23.3030 C.3       6 GLP5        0.0000 
    102 CA         29.0979    7.3315   19.4111 C.3       3 GLC5        0.0000 
    103 CA         28.2480    9.0550   19.6640 C.3       6 GLP5        0.0000 
    104 CA         14.3420   -0.4050   15.0400 C.3       3 GLC5        0.0000 
    105 CA         13.1140    0.4140   16.2640 C.3       9 GLL5        0.0000 
    106 CA         15.5090   -0.5010   13.6210 C.3       6 GLP5        0.0000 
    107 CA         12.4065    1.0297   18.3574 C.3       3 GLC5        0.0000 
    108 CA         10.6610    1.0360   19.4390 C.3       6 GLP5        0.0000 
    109 CA         16.1849    1.8341   16.4868 C.3       3 GLC5        0.0000 
    110 CA         14.0200    1.3660   16.7450 C.3       9 GLL5        0.0000 
    111 CA         18.1250    1.7300   16.2100 C.3       6 GLP5        0.0000 
    112 CA         19.0857    7.4078   12.4845 C.3       3 GLC5        0.0000 
    113 CA         19.9270    7.6530   10.5670 C.3       6 GLP5        0.0000 
    114 CA         14.4785    0.7831   14.6579 C.3       3 GLC5        0.0000 
@<TRIPOS>BOND
@<TRIPOS>SUBSTRUCTURE
     1 ALC1       15 GROUP        1 X    ALC  0     ROOT ALC X 1
     2 SEC2        1 GROUP        1 X    SEC  0     **** SEC X 2
     3 GLC5        7 GROUP        1 X    GLC  0     **** GLC X 6
     4 ALP1       17 GROUP        1 Y    ALP  0     ROOT ALP Y 8
     5 SEP2        3 GROUP        1 Y    SEP  0     **** SEP Y 9
     6 GLP5        9 GROUP        1 Y    GLP  0     **** GLP Y 13
     7 ALL1       16 GROUP        1 Z    ALL  0     ROOT ALL Z 15
     8 SEL2        2 GROUP        1 Z    SEL  0     **** SEL Z 16
     9 GLL5        8 GROUP        1 Z    GLL  0     **** GLL Z 20
@<TRIPOS>SET

