#    Name: 2v6o_FAD_1_ligand
#    Modification time : Tue Mar 25 01:05:16 2014

@<TRIPOS>MOLECULE
2v6o_FAD_1_ligand
   84    89     1     0     0
SMALL
NO_CHARGES


@<TRIPOS>ATOM
      1 PA         21.9950    5.7720   15.2430 P.3       1 FAD1594     0.0000 
      2 O1A        21.7170    4.8510   16.4070 O.co2     1 FAD1594     0.0000 
      3 O2A        21.1920    5.3630   14.0310 O.co2     1 FAD1594     0.0000 
      4 O5B        23.5720    5.7560   14.9130 O.3       1 FAD1594     0.0000 
      5 C5B        24.5240    5.9700   15.9300 C.3       1 FAD1594     0.0000 
      6 C4B        25.6410    4.9390   15.8460 C.3       1 FAD1594     0.0000 
      7 O4B        26.8040    5.4400   16.4770 O.3       1 FAD1594     0.0000 
      8 C3B        25.2650    3.6480   16.5570 C.3       1 FAD1594     0.0000 
      9 O3B        25.1230    2.6080   15.6130 O.3       1 FAD1594     0.0000 
     10 C2B        26.4040    3.3680   17.5240 C.3       1 FAD1594     0.0000 
     11 O2B        26.9220    2.0680   17.3460 O.3       1 FAD1594     0.0000 
     12 C1B        27.4640    4.4080   17.1860 C.3       1 FAD1594     0.0000 
     13 N9A        28.1640    4.9320   18.3820 N.pl3     1 FAD1594     0.0000 
     14 C8A        27.6390    5.1560   19.6310 C.2       1 FAD1594     0.0000 
     15 N7A        28.6170    5.6350   20.4340 N.2       1 FAD1594     0.0000 
     16 C5A        29.7610    5.7220   19.7210 C.ar      1 FAD1594     0.0000 
     17 C6A        31.0460    6.1440   20.0540 C.ar      1 FAD1594     0.0000 
     18 N6A        31.3930    6.2390   21.3350 N.pl3     1 FAD1594     0.0000 
     19 N1A        32.0350    6.1200   19.0870 N.ar      1 FAD1594     0.0000 
     20 C2A        31.7550    5.6800   17.8070 C.ar      1 FAD1594     0.0000 
     21 N3A        30.4750    5.2640   17.4900 N.ar      1 FAD1594     0.0000 
     22 C4A        29.4920    5.2830   18.4290 C.ar      1 FAD1594     0.0000 
     23 N1         12.6230    5.6840   12.6830 N.2       1 FAD1594     0.0000 
     24 C2         11.8050    5.9530   11.6010 C.2       1 FAD1594     0.0000 
     25 O2         11.8660    7.0460   11.0420 O.2       1 FAD1594     0.0000 
     26 N3         10.9170    4.9980   11.1460 N.am      1 FAD1594     0.0000 
     27 C4         10.8420    3.7660   11.7670 C.2       1 FAD1594     0.0000 
     28 O4         10.2060    2.8590   11.2300 O.2       1 FAD1594     0.0000 
     29 C4X        11.6650    3.4920   12.8600 C.2       1 FAD1594     0.0000 
     30 N5         11.5940    2.2620   13.4830 N.2       1 FAD1594     0.0000 
     31 C5X        12.4030    1.9780   14.5630 C.ar      1 FAD1594     0.0000 
     32 C6         12.3070    0.7300   15.1740 C.ar      1 FAD1594     0.0000 
     33 C7         13.1140    0.4140   16.2640 C.ar      1 FAD1594     0.0000 
     34 C7M        13.2360   -1.0320   16.6540 C.3       1 FAD1594     0.0000 
     35 C8         14.0200    1.3660   16.7450 C.ar      1 FAD1594     0.0000 
     36 C8M        14.7370    1.1570   18.0470 C.3       1 FAD1594     0.0000 
     37 C9         14.1110    2.6150   16.1310 C.ar      1 FAD1594     0.0000 
     38 C9A        13.3060    2.9340   15.0350 C.ar      1 FAD1594     0.0000 
     39 N10        13.3880    4.1770   14.4110 N.pl3     1 FAD1594     0.0000 
     40 C10        12.5640    4.4560   13.3240 C.2       1 FAD1594     0.0000 
     41 C1'        14.2540    5.2640   14.9980 C.3       1 FAD1594     0.0000 
     42 C2'        15.5760    5.3910   14.2370 C.3       1 FAD1594     0.0000 
     43 O2'        16.2240    4.1370   14.2210 O.3       1 FAD1594     0.0000 
     44 C3'        16.4950    6.4500   14.8540 C.3       1 FAD1594     0.0000 
     45 O3'        15.7930    7.6700   14.9800 O.3       1 FAD1594     0.0000 
     46 C4'        17.7690    6.6900   14.0370 C.3       1 FAD1594     0.0000 
     47 O4'        18.4450    5.4740   13.7960 O.3       1 FAD1594     0.0000 
     48 C5'        18.7200    7.6350   14.7670 C.3       1 FAD1594     0.0000 
     49 O5'        19.8680    7.8720   13.9820 O.3       1 FAD1594     0.0000 
     50 P          21.2270    8.4270   14.6460 P.3       1 FAD1594     0.0000 
     51 O1P        22.2840    8.5880   13.5780 O.co2     1 FAD1594     0.0000 
     52 O2P        20.9850    9.7330   15.3650 O.co2     1 FAD1594     0.0000 
     53 O3P        21.6830    7.2880   15.6930 O.3       1 FAD1594     0.0000 
     54 H          24.0785    5.8947   16.9361 H         1 FAD1594     0.0000 
     55 H          24.9882    6.9679   15.8588 H         1 FAD1594     0.0000 
     56 H          25.8279    4.7114   14.8109 H         1 FAD1594     0.0000 
     57 H          24.3786    3.8295   17.1228 H         1 FAD1594     0.0000 
     58 H          26.0589    3.5598   18.5135 H         1 FAD1594     0.0000 
     59 H          28.1894    3.9165   16.5287 H         1 FAD1594     0.0000 
     60 H          26.7240    4.9950   19.8823 H         1 FAD1594     0.0000 
     61 H          30.9107    5.6330   21.9676 H         1 FAD1594     0.0000 
     62 H          32.1048    6.9079   21.5496 H         1 FAD1594     0.0000 
     63 H          32.4956    5.6620   17.0929 H         1 FAD1594     0.0000 
     64 H          10.3068    5.2052   10.3388 H         1 FAD1594     0.0000 
     65 H          11.6341    0.0358   14.8169 H         1 FAD1594     0.0000 
     66 H          14.7814    3.3130   16.4903 H         1 FAD1594     0.0000 
     67 H          14.4697    5.0385   16.0448 H         1 FAD1594     0.0000 
     68 H          13.7274    6.2199   14.9523 H         1 FAD1594     0.0000 
     69 H          15.3379    5.7126   13.2208 H         1 FAD1594     0.0000 
     70 H          16.8013    6.0879   15.8399 H         1 FAD1594     0.0000 
     71 H          17.4833    7.1690   13.1049 H         1 FAD1594     0.0000 
     72 H          18.9676    7.1721   15.7340 H         1 FAD1594     0.0000 
     73 H          18.1657    8.5611   14.9806 H         1 FAD1594     0.0000 
     74 H          13.6094   -1.5869   15.9106 H         1 FAD1594     0.0000 
     75 H          13.8388   -1.1544   17.4425 H         1 FAD1594     0.0000 
     76 H          12.3503   -1.4268   16.8981 H         1 FAD1594     0.0000 
     77 H          15.2911    0.3246   18.0364 H         1 FAD1594     0.0000 
     78 H          15.3527    1.9162   18.2580 H         1 FAD1594     0.0000 
     79 H          14.0995    1.0750   18.8131 H         1 FAD1594     0.0000 
     80 H          25.7252    1.8790   15.9387 H         1 FAD1594     0.0000 
     81 H          27.8340    2.0946   17.7554 H         1 FAD1594     0.0000 
     82 H          17.1884    4.3462   14.0595 H         1 FAD1594     0.0000 
     83 H          16.2659    8.1666   15.7079 H         1 FAD1594     0.0000 
     84 H          19.4098    5.6769   13.9631 H         1 FAD1594     0.0000 
@<TRIPOS>BOND
     1    2    1 ar   
     2    3    1 ar   
     3    4    1 1    
     4   53    1 1    
     5    5    4 1    
     6    6    5 1    
     7   54    5 1    
     8   55    5 1    
     9    7    6 1    
    10    8    6 1    
    11   56    6 1    
    12   12    7 1    
    13    9    8 1    
    14   10    8 1    
    15   57    8 1    
    16   80    9 1    
    17   11   10 1    
    18   12   10 1    
    19   58   10 1    
    20   81   11 1    
    21   13   12 1    
    22   59   12 1    
    23   14   13 1    
    24   22   13 1    
    25   15   14 2    
    26   60   14 1    
    27   16   15 1    
    28   17   16 ar   
    29   22   16 ar   
    30   18   17 1    
    31   19   17 ar   
    32   61   18 1    
    33   62   18 1    
    34   20   19 ar   
    35   21   20 ar   
    36   63   20 1    
    37   22   21 ar   
    38   24   23 1    
    39   40   23 2    
    40   25   24 2    
    41   26   24 am   
    42   27   26 am   
    43   64   26 1    
    44   28   27 2    
    45   29   27 1    
    46   30   29 2    
    47   40   29 1    
    48   31   30 1    
    49   32   31 ar   
    50   38   31 ar   
    51   33   32 ar   
    52   65   32 1    
    53   34   33 1    
    54   35   33 ar   
    55   74   34 1    
    56   75   34 1    
    57   76   34 1    
    58   36   35 1    
    59   37   35 ar   
    60   77   36 1    
    61   78   36 1    
    62   79   36 1    
    63   38   37 ar   
    64   66   37 1    
    65   39   38 1    
    66   40   39 1    
    67   41   39 1    
    68   42   41 1    
    69   67   41 1    
    70   68   41 1    
    71   43   42 1    
    72   44   42 1    
    73   69   42 1    
    74   82   43 1    
    75   45   44 1    
    76   46   44 1    
    77   70   44 1    
    78   83   45 1    
    79   47   46 1    
    80   48   46 1    
    81   71   46 1    
    82   84   47 1    
    83   49   48 1    
    84   72   48 1    
    85   73   48 1    
    86   50   49 1    
    87   51   50 ar   
    88   52   50 ar   
    89   53   50 1    
@<TRIPOS>SUBSTRUCTURE
     1 FAD1594     1 GROUP   
@<TRIPOS>SET

