#    Name: 3RBA_1_CAVITY_N1_ALL.mol2
#    Modification time : Mon Mar 10 19:52:13 2014

@<TRIPOS>MOLECULE
3RBA_1_CAVITY_N1_ALL.mol2
  130     0     6     0     0
SMALL
NO_CHARGES


@<TRIPOS>ATOM
      1 NZ         -2.0106   49.6166    9.7287 N.2       3 LYS4        0.0000 
      2 CZ         -3.2521   49.2586    8.9667 C.ar      4 PHE5        0.0000 
      3 NZ         -1.5353   48.1980    9.6209 N.2       3 LYS4        0.0000 
      4 NZ         -2.2303   47.8673   10.9084 N.2       3 LYS4        0.0000 
      5 DU         -2.0818   48.1707    7.5713 H         6 CUB7        0.0000 
      6 NZ         -2.7768   47.8400    8.8589 N.2       3 LYS4        0.0000 
      7 NZ         -3.4717   47.5093   10.1464 N.2       3 LYS4        0.0000 
      8 NZ         -4.0182   47.4820    8.0968 N.2       3 LYS4        0.0000 
      9 O           0.8763   47.4681    8.9876 O.2       2 ALA2        0.0000 
     10 NZ          0.1814   47.1375   10.2751 N.2       3 LYS4        0.0000 
     11 DU         -0.3651   47.1101    8.2256 H         6 CUB7        0.0000 
     12 NZ         -1.0600   46.7794    9.5131 N.2       3 LYS4        0.0000 
     13 NZ         -1.7550   46.4487   10.8006 N.2       3 LYS4        0.0000 
     14 N          -2.4499   46.1180   12.0881 N.2       2 ALA2        0.0000 
     15 DU         -1.6065   46.7521    7.4635 H         6 CUB7        0.0000 
     16 NZ         -2.3015   46.4214    8.7510 N.2       3 LYS4        0.0000 
     17 NZ         -2.9964   46.0907   10.0385 N.2       3 LYS4        0.0000 
     18 DU         -2.8479   46.3941    6.7015 H         6 CUB7        0.0000 
     19 NZ         -3.5429   46.0634    7.9890 N.2       3 LYS4        0.0000 
     20 NZ         -4.7843   45.7053    7.2270 N.2       3 LYS4        0.0000 
     21 O           1.3516   46.0495    8.8798 O.2       2 ALA2        0.0000 
     22 O           0.6567   45.7188   10.1673 O.2       2 ALA2        0.0000 
     23 NZ         -0.0382   45.3881   11.4548 N.2       3 LYS4        0.0000 
     24 DU          0.8052   46.0222    6.8302 H         6 CUB7        0.0000 
     25 DU          0.1102   45.6915    8.1177 H         6 CUB7        0.0000 
     26 DU         -0.5847   45.3608    9.4053 H         6 CUB7        0.0000 
     27 N          -1.2797   45.0301   10.6928 N.2       2 ALA2        0.0000 
     28 DU         -1.8261   45.0028    8.6432 H         6 CUB7        0.0000 
     29 N          -2.5211   44.6721    9.9307 N.2       2 ALA2        0.0000 
     30 NZ         -3.0676   44.6448    7.8812 N.2       3 LYS4        0.0000 
     31 NZ         -3.7625   44.3141    9.1687 N.2       3 LYS4        0.0000 
     32 N          -4.4575   43.9834   10.4562 N.2       2 ALA2        0.0000 
     33 DU         -3.6140   44.6174    5.8317 H         6 CUB7        0.0000 
     34 NZ         -4.3090   44.2867    7.1192 N.2       3 LYS4        0.0000 
     35 NZ         -5.0039   43.9560    8.4067 N.2       3 LYS4        0.0000 
     36 O           1.8270   44.6309    8.7720 O.2       2 ALA2        0.0000 
     37 O           1.1320   44.3002   10.0595 O.2       2 ALA2        0.0000 
     38 CA          0.4371   43.9695   11.3470 C.3       5 GLY6        0.0000 
     39 CA         -0.2579   43.6388   12.6345 C.3       5 GLY6        0.0000 
     40 CA          1.9754   44.9343    5.4349 C.3       5 GLY6        0.0000 
     41 CA          1.2805   44.6036    6.7224 C.3       5 GLY6        0.0000 
     42 DU          0.5855   44.2729    8.0099 H         6 CUB7        0.0000 
     43 DU         -0.1094   43.9422    9.2974 H         6 CUB7        0.0000 
     44 N          -0.8044   43.6115   10.5849 N.2       2 ALA2        0.0000 
     45 O           1.4290   44.9070    3.3854 O.2       2 ALA2        0.0000 
     46 DU          0.7340   44.5763    4.6729 H         6 CUB7        0.0000 
     47 DU          0.0391   44.2456    5.9604 H         6 CUB7        0.0000 
     48 DU         -0.6559   43.9149    7.2479 H         6 CUB7        0.0000 
     49 DU         -1.3508   43.5842    8.5354 H         6 CUB7        0.0000 
     50 N          -2.0458   43.2535    9.8229 N.2       2 ALA2        0.0000 
     51 OG         -0.5074   44.2182    3.9108 O.2       1 SER1        0.0000 
     52 DU         -1.2024   43.8875    5.1984 H         6 CUB7        0.0000 
     53 DU         -1.8973   43.5568    6.4859 H         6 CUB7        0.0000 
     54 DU         -2.5923   43.2261    7.7734 H         6 CUB7        0.0000 
     55 N          -3.2872   42.8955    9.0609 N.2       2 ALA2        0.0000 
     56 N          -3.9822   42.5648   10.3484 N.2       2 ALA2        0.0000 
     57 OG         -1.7488   43.8602    3.1488 O.2       1 SER1        0.0000 
     58 OG         -2.4438   43.5295    4.4363 O.2       1 SER1        0.0000 
     59 DU         -3.1387   43.1988    5.7238 H         6 CUB7        0.0000 
     60 DU         -3.8337   42.8681    7.0114 H         6 CUB7        0.0000 
     61 CA         -4.5286   42.5374    8.2989 C.3       5 GLY6        0.0000 
     62 CA         -4.3802   42.8408    4.9618 C.3       5 GLY6        0.0000 
     63 N          -5.0751   42.5101    6.2493 N.2       2 ALA2        0.0000 
     64 N          -5.7700   42.1794    7.5368 N.2       2 ALA2        0.0000 
     65 N           2.3023   43.2123    8.6641 N.2       2 ALA2        0.0000 
     66 N           1.6073   42.8816    9.9517 N.2       2 ALA2        0.0000 
     67 CA          0.9124   42.5509   11.2392 C.3       5 GLY6        0.0000 
     68 CA          0.2174   42.2202   12.5267 C.3       5 GLY6        0.0000 
     69 O          -0.4775   41.8895   13.8142 O.2       2 ALA2        0.0000 
     70 CA          1.7558   43.1850    6.6146 C.3       5 GLY6        0.0000 
     71 N           1.0608   42.8543    7.9021 N.2       2 ALA2        0.0000 
     72 N           0.3659   42.5236    9.1896 N.2       2 ALA2        0.0000 
     73 DU         -0.3291   42.1929   10.4771 H         6 CUB7        0.0000 
     74 N          -1.0240   41.8622   11.7646 N.2       2 ALA2        0.0000 
     75 OG          1.2093   43.1577    4.5651 O.2       1 SER1        0.0000 
     76 N           0.5144   42.8270    5.8526 N.2       2 ALA2        0.0000 
     77 N          -0.1806   42.4963    7.1401 N.2       2 ALA2        0.0000 
     78 N          -0.8755   42.1656    8.4276 N.2       2 ALA2        0.0000 
     79 CA         -1.5705   41.8349    9.7151 C.3       5 GLY6        0.0000 
     80 CA         -2.2654   41.5042   11.0026 C.3       5 GLY6        0.0000 
     81 OG         -0.0321   42.7996    3.8030 O.2       1 SER1        0.0000 
     82 N          -0.7271   42.4689    5.0905 N.2       2 ALA2        0.0000 
     83 N          -1.4220   42.1382    6.3781 N.2       2 ALA2        0.0000 
     84 N          -2.1169   41.8075    7.6656 N.2       2 ALA2        0.0000 
     85 CA         -2.8119   41.4768    8.9531 C.3       5 GLY6        0.0000 
     86 O          -3.5068   41.1461   10.2406 O.2       2 ALA2        0.0000 
     87 N          -1.9685   42.1109    4.3285 N.2       2 ALA2        0.0000 
     88 N          -2.6634   41.7802    5.6160 N.2       2 ALA2        0.0000 
     89 N          -3.3584   41.4495    6.9035 N.2       2 ALA2        0.0000 
     90 N          -4.0533   41.1188    8.1910 N.2       2 ALA2        0.0000 
     91 O          -4.7483   40.7881    9.4786 O.2       2 ALA2        0.0000 
     92 CA         -3.9048   41.4222    4.8540 C.3       5 GLY6        0.0000 
     93 N          -4.5998   41.0915    6.1415 N.2       2 ALA2        0.0000 
     94 N          -5.9897   40.4301    8.7165 N.2       2 ALA2        0.0000 
     95 CA          2.6291   41.4903   11.8934 C.3       5 GLY6        0.0000 
     96 OG          1.9342   41.1596   13.1809 O.2       1 SER1        0.0000 
     97 N           2.0826   41.4630    9.8438 N.2       2 ALA2        0.0000 
     98 DU          1.3877   41.1323   11.1313 H         6 CUB7        0.0000 
     99 DU          0.6927   40.8016   12.4189 H         6 CUB7        0.0000 
    100 CA         -0.0022   40.4709   13.7064 C.3       5 GLY6        0.0000 
    101 O           2.2311   41.7664    6.5068 O.2       2 ALA2        0.0000 
    102 N           1.5362   41.4357    7.7943 N.2       2 ALA2        0.0000 
    103 N           0.8412   41.1050    9.0818 N.2       2 ALA2        0.0000 
    104 CA          0.1463   40.7743   10.3693 C.3       5 GLY6        0.0000 
    105 CA         -0.5487   40.4436   11.6568 C.3       5 GLY6        0.0000 
    106 CA         -1.2436   40.1129   12.9443 C.3       5 GLY6        0.0000 
    107 CA         -1.0952   40.4163    9.6073 C.3       5 GLY6        0.0000 
    108 CA         -1.7901   40.0856   10.8948 C.3       5 GLY6        0.0000 
    109 CA         -2.3366   40.0582    8.8453 C.3       5 GLY6        0.0000 
    110 O          -3.0315   39.7275   10.1328 O.2       2 ALA2        0.0000 
    111 CA         -2.8831   40.0309    6.7957 C.3       5 GLY6        0.0000 
    112 CA         -3.5780   39.7002    8.0832 C.3       5 GLY6        0.0000 
    113 O          -4.2730   39.3695    9.3707 O.2       2 ALA2        0.0000 
    114 O          -4.9679   39.0388   10.6583 O.2       2 ALA2        0.0000 
    115 N          -4.8194   39.3422    7.3212 N.2       2 ALA2        0.0000 
    116 N          -5.5144   39.0115    8.6087 N.2       2 ALA2        0.0000 
    117 N          -6.2093   38.6808    9.8962 N.2       2 ALA2        0.0000 
    118 CA          3.1044   40.0717   11.7856 C.3       5 GLY6        0.0000 
    119 OG          2.4095   39.7410   13.0731 O.2       1 SER1        0.0000 
    120 OG          2.5579   40.0444    9.7360 O.2       1 SER1        0.0000 
    121 CA          1.8630   39.7137   11.0235 C.3       5 GLY6        0.0000 
    122 N           1.1680   39.3830   12.3110 N.2       2 ALA2        0.0000 
    123 CA          0.4731   39.0523   13.5986 C.3       5 GLY6        0.0000 
    124 CA          1.3165   39.6864    8.9740 C.3       5 GLY6        0.0000 
    125 O           0.6216   39.3557   10.2615 O.2       2 ALA2        0.0000 
    126 N          -0.0734   39.0250   11.5490 N.2       2 ALA2        0.0000 
    127 CA         -2.5562   38.3089   10.0250 C.3       5 GLY6        0.0000 
    128 CZ         -3.1027   38.2816    7.9754 C.ar      4 PHE5        0.0000 
    129 CA         -3.7976   37.9509    9.2629 C.3       5 GLY6        0.0000 
    130 CZ         -5.0391   37.5929    8.5009 C.ar      4 PHE5        0.0000 
@<TRIPOS>BOND
@<TRIPOS>SUBSTRUCTURE
     1 SER1       51 GROUP   
     2 ALA2        9 GROUP   
     3 LYS4        1 GROUP   
     4 PHE5        2 GROUP   
     5 GLY6       38 GROUP   
     6 CUB7        5 GROUP   
@<TRIPOS>SET

