#    Name: 3rba_COD_1_INTS_M
#    Modification time : Tue Mar 25 11:20:08 2014

@<TRIPOS>MOLECULE
3rba_COD_1_INTS_M
   85     0     9     0     0
SMALL
NO_CHARGES


@<TRIPOS>ATOM
      1 N           2.4670   40.7130   14.3515 N.am      2 SEC2        0.0000 
      2 N           1.5970   40.5290   13.1900 N.am      8 SEL2        0.0000 
      3 N           3.3370   40.8970   15.5130 N.am      5 SEP2        0.0000 
      4 CA         -0.7810   39.1710   13.8600 C.3       3 GLC5        0.0000 
      5 CA          0.2660   40.6470   13.3690 C.3       9 GLL5        0.0000 
      6 CA         -1.8280   37.6950   14.3510 C.3       6 GLP5        0.0000 
      7 CA         -1.6515   40.9830   13.5575 C.3       3 GLC5        0.0000 
      8 CA         -3.5690   41.3190   13.7460 C.3       6 GLP5        0.0000 
      9 CA          1.2710   42.5440   13.4590 C.3       3 GLC5        0.0000 
     10 CA          2.2760   44.4410   13.5490 C.3       6 GLP5        0.0000 
     11 CA          1.2990   41.1190   14.8145 C.3       3 GLC5        0.0000 
     12 CA          2.3320   41.5910   16.2600 C.3       6 GLP5        0.0000 
     13 CA         -1.8310   41.3530   12.4665 C.3       3 GLC5        0.0000 
     14 CA         -0.0930   41.3870   11.1870 C.3       9 GLL5        0.0000 
     15 CA          2.7180   38.9850   11.5310 C.3       3 GLC5        0.0000 
     16 CA          2.2010   40.8400   12.0270 C.3       9 GLL5        0.0000 
     17 CA          3.2350   37.1300   11.0350 C.3       6 GLP5        0.0000 
     18 CA          2.2665   41.2155   14.1435 C.3       3 GLC5        0.0000 
     19 O           4.2210   41.6065   10.6925 O.2       1 ALC1        0.0000 
     20 O           3.5400   40.7380   11.8520 O.2       7 ALL1        0.0000 
     21 O           4.9020   42.4750    9.5330 O.2       4 ALP1        0.0000 
     22 CA         -1.3235   40.4610    8.6105 C.3       3 GLC5        0.0000 
     23 CA         -2.0570   42.0430    9.8830 C.3       9 GLL5        0.0000 
     24 CA         -0.5900   38.8790    7.3380 C.3       6 GLP5        0.0000 
     25 CA         -2.8130   41.6810   11.8145 C.3       3 GLC5        0.0000 
     26 O          -2.9805   43.9495   11.7360 O.2       1 ALC1        0.0000 
     27 O          -2.4200   44.3260   10.5590 O.2       7 ALL1        0.0000 
     28 O          -3.5410   43.5730   12.9130 O.2       4 ALP1        0.0000 
     29 CA         -5.8715   43.5390    8.9350 C.3       3 GLC5        0.0000 
     30 CA         -3.6410   43.3200    8.7390 C.3       9 GLL5        0.0000 
     31 CA         -8.1020   43.7580    9.1310 C.3       6 GLP5        0.0000 
     32 O          -5.2765   44.9600    9.8195 O.2       1 ALC1        0.0000 
     33 O          -4.6180   43.5390    9.7560 O.2       7 ALL1        0.0000 
     34 O          -5.9350   46.3810    9.8830 O.2       4 ALP1        0.0000 
     35 CA         -4.7915   41.1415    5.2475 C.3       3 GLC5        0.0000 
     36 CA         -3.5890   41.6790    6.7770 C.3       9 GLL5        0.0000 
     37 CA         -5.9940   40.6040    3.7180 C.3       6 GLP5        0.0000 
     38 CA         -3.5075   39.5970    6.1235 C.3       3 GLC5        0.0000 
     39 CA         -3.4260   37.5150    5.4700 C.3       6 GLP5        0.0000 
     40 N          -1.2990   41.1020    6.3820 N.am      2 SEC2        0.0000 
     41 N          -2.4290   42.3480    6.2990 N.am      8 SEL2        0.0000 
     42 N          -0.1690   39.8560    6.4650 N.am      5 SEP2        0.0000 
     43 N          -3.4335   41.3845    2.8920 N.am      2 SEC2        0.0000 
     44 N          -2.3110   41.6330    3.9540 N.am      8 SEL2        0.0000 
     45 N          -4.5560   41.1360    1.8300 N.am      5 SEP2        0.0000 
     46 N          -2.3135   42.1275    2.3580 N.am      2 SEC2        0.0000 
     47 N          -2.3160   42.6220    0.7620 N.am      5 SEP2        0.0000 
     48 N          -2.3400   40.5910    2.7470 N.am      2 SEC2        0.0000 
     49 N          -2.3690   39.5490    1.5400 N.am      5 SEP2        0.0000 
     50 CA         -7.1865   42.2630    3.0720 C.3       3 GLC5        0.0000 
     51 CA         -8.3790   43.9220    2.4260 C.3       9 GLL5        0.0000 
     52 CA         -8.8860   42.7255    1.0685 C.3       3 GLC5        0.0000 
     53 CA         -9.3930   41.5290   -0.2890 C.3       6 GLP5        0.0000 
     54 CA         -9.6190   42.0705    5.1015 C.3       3 GLC5        0.0000 
     55 CA         -9.0590   44.0450    4.8210 C.3       9 GLL5        0.0000 
     56 CA        -10.1790   40.0960    5.3820 C.3       6 GLP5        0.0000 
     57 CA        -11.0750   43.3685    4.2115 C.3       3 GLC5        0.0000 
     58 CA        -13.0910   42.6920    3.6020 C.3       6 GLP5        0.0000 
     59 CA         -8.5805   43.9015    6.9760 C.3       3 GLC5        0.0000 
     60 CA        -11.5655   43.1170    0.8405 C.3       3 GLC5        0.0000 
     61 CA        -12.4700   45.0140    1.1630 C.3       9 GLL5        0.0000 
     62 CA        -10.6610   41.2200    0.5180 C.3       6 GLP5        0.0000 
     63 CA        -15.3070   45.2840    0.9630 C.3       3 GLC5        0.0000 
     64 CA        -13.3940   46.1990    0.8820 C.3       9 GLL5        0.0000 
     65 CA        -17.2200   44.3690    1.0440 C.3       6 GLP5        0.0000 
     66 N         -15.2165   44.6055    2.8455 N.am      2 SEC2        0.0000 
     67 N         -14.5480   45.9360    2.9590 N.am      8 SEL2        0.0000 
     68 N         -15.8850   43.2750    2.7320 N.am      5 SEP2        0.0000 
     69 CA        -16.2750   48.0145    2.6165 C.3       3 GLC5        0.0000 
     70 CA        -14.6000   48.6130    3.5330 C.3       9 GLL5        0.0000 
     71 CA        -17.9500   47.4160    1.7000 C.3       6 GLP5        0.0000 
     72 CA        -11.8205   48.7315    5.7650 C.3       3 GLC5        0.0000 
     73 CA        -13.6510   48.6950    4.7220 C.3       9 GLL5        0.0000 
     74 CA         -9.9900   48.7680    6.8080 C.3       6 GLP5        0.0000 
     75 CA        -13.6425   49.7325    7.9065 C.3       3 GLC5        0.0000 
     76 CA        -14.5360   49.3690    6.1490 C.3       9 GLL5        0.0000 
     77 CA        -12.7490   50.0960    9.6640 C.3       6 GLP5        0.0000 
     78 CA        -16.0405   50.5080    6.8365 C.3       3 GLC5        0.0000 
     79 CA        -17.5450   51.6470    7.5240 C.3       6 GLP5        0.0000 
     80 CA          2.5465   42.7923   11.9642 C.3       3 GLC5        0.0000 
     81 CA          1.3450   41.3010   10.9240 C.3       9 GLL5        0.0000 
     82 CA          3.3200   44.5140   12.4530 C.3       6 GLP5        0.0000 
     83 CA         -2.1120   40.3250    7.4335 C.3       3 GLC5        0.0000 
     84 CA         -3.6790   41.8630    8.2810 C.3       9 GLL5        0.0000 
     85 CA        -13.0115   44.1492    2.3122 C.3       3 GLC5        0.0000 
@<TRIPOS>BOND
@<TRIPOS>SUBSTRUCTURE
     1 ALC1       19 GROUP        1 X    ALC  0     ROOT ALC X 1
     2 SEC2        1 GROUP        1 X    SEC  0     **** SEC X 2
     3 GLC5        4 GROUP        1 X    GLC  0     **** GLC X 6
     4 ALP1       21 GROUP        1 Y    ALP  0     ROOT ALP Y 8
     5 SEP2        3 GROUP        1 Y    SEP  0     **** SEP Y 9
     6 GLP5        6 GROUP        1 Y    GLP  0     **** GLP Y 13
     7 ALL1       20 GROUP        1 Z    ALL  0     ROOT ALL Z 15
     8 SEL2        2 GROUP        1 Z    SEL  0     **** SEL Z 16
     9 GLL5        5 GROUP        1 Z    GLL  0     **** GLL Z 20
@<TRIPOS>SET

