#    Name: 3rba_COD_1_ligand
#    Modification time : Tue Mar 25 11:20:08 2014

@<TRIPOS>MOLECULE
3rba_COD_1_ligand
   76    78     1     0     0
SMALL
NO_CHARGES


@<TRIPOS>ATOM
      1 N1          1.5970   40.5290   13.1900 N.ar      1 COD3000     0.0000 
      2 C2          0.2660   40.6470   13.3690 C.ar      1 COD3000     0.0000 
      3 N3         -0.5780   41.0510   12.4040 N.ar      1 COD3000     0.0000 
      4 C4         -0.0930   41.3870   11.1870 C.ar      1 COD3000     0.0000 
      5 C5          1.3450   41.3010   10.9240 C.ar      1 COD3000     0.0000 
      6 C6          2.2010   40.8400   12.0270 C.ar      1 COD3000     0.0000 
      7 N7          3.5400   40.7380   11.8520 N.pl3     1 COD3000     0.0000 
      8 N8          1.5440   41.6850    9.6550 N.2       1 COD3000     0.0000 
      9 C9          0.3360   41.9890    9.1310 C.2       1 COD3000     0.0000 
     10 N10        -0.6250   41.8190   10.0590 N.pl3     1 COD3000     0.0000 
     11 C11        -2.0570   42.0430    9.8830 C.3       1 COD3000     0.0000 
     12 C12        -2.3110   43.4610    9.4310 C.3       1 COD3000     0.0000 
     13 O13        -2.4200   44.3260   10.5590 O.3       1 COD3000     0.0000 
     14 C14        -3.6410   43.3200    8.7390 C.3       1 COD3000     0.0000 
     15 O15        -4.6180   43.5390    9.7560 O.3       1 COD3000     0.0000 
     16 C16        -3.6790   41.8630    8.2810 C.3       1 COD3000     0.0000 
     17 O17        -2.5390   41.2170    8.8350 O.3       1 COD3000     0.0000 
     18 C18        -3.5890   41.6790    6.7770 C.3       1 COD3000     0.0000 
     19 O19        -2.4290   42.3480    6.2990 O.3       1 COD3000     0.0000 
     20 P20        -2.5170   42.8730    4.7950 P.3       1 COD3000     0.0000 
     21 O21        -1.6940   44.1280    4.6310 O.co2     1 COD3000     0.0000 
     22 O22        -2.3110   41.6330    3.9540 O.co2     1 COD3000     0.0000 
     23 O23        -4.0840   43.2400    4.6950 O.3       1 COD3000     0.0000 
     24 P24        -4.6490   44.6860    4.2530 P.3       1 COD3000     0.0000 
     25 O25        -4.4590   45.6430    5.4080 O.co2     1 COD3000     0.0000 
     26 O26        -4.0900   45.0070    2.8900 O.co2     1 COD3000     0.0000 
     27 O27        -6.2230   44.3920    4.1170 O.3       1 COD3000     0.0000 
     28 C28        -7.1770   45.4410    3.9640 C.3       1 COD3000     0.0000 
     29 C29        -8.5320   44.8360    3.6310 C.3       1 COD3000     0.0000 
     30 C30        -8.3790   43.9220    2.4260 C.3       1 COD3000     0.0000 
     31 C31        -9.0590   44.0450    4.8210 C.3       1 COD3000     0.0000 
     32 C32        -9.4920   45.9730    3.2830 C.3       1 COD3000     0.0000 
     33 O33        -8.9660   46.6830    2.1590 O.3       1 COD3000     0.0000 
     34 C34       -10.8620   45.4720    2.9310 C.2       1 COD3000     0.0000 
     35 O35       -11.6550   45.1610    3.7990 O.2       1 COD3000     0.0000 
     36 N36       -11.1560   45.4100    1.6370 N.am      1 COD3000     0.0000 
     37 C37       -12.4700   45.0140    1.1630 C.3       1 COD3000     0.0000 
     38 C38       -13.3940   46.1990    0.8820 C.3       1 COD3000     0.0000 
     39 C39       -14.0140   46.7000    2.1700 C.2       1 COD3000     0.0000 
     40 O40       -14.5480   45.9360    2.9590 O.2       1 COD3000     0.0000 
     41 N41       -13.9500   48.0100    2.3840 N.am      1 COD3000     0.0000 
     42 C42       -14.6000   48.6130    3.5330 C.3       1 COD3000     0.0000 
     43 C43       -13.6510   48.6950    4.7220 C.3       1 COD3000     0.0000 
     44 S44       -14.5360   49.3690    6.1490 S.3       1 COD3000     0.0000 
     45 H          -0.1367   40.4069   14.3269 H         1 COD3000     0.0000 
     46 H           4.0095   40.0698   12.4291 H         1 COD3000     0.0000 
     47 H           3.9406   41.3399   11.1612 H         1 COD3000     0.0000 
     48 H           0.1849   42.2877    8.2141 H         1 COD3000     0.0000 
     49 H          -2.5891   41.8741   10.7871 H         1 COD3000     0.0000 
     50 H          -1.5838   43.7348    8.7340 H         1 COD3000     0.0000 
     51 H          -3.6976   43.9589    7.9382 H         1 COD3000     0.0000 
     52 H          -4.5791   41.4048    8.6402 H         1 COD3000     0.0000 
     53 H          -4.5043   42.0818    6.3320 H         1 COD3000     0.0000 
     54 H          -3.5546   40.6048    6.5695 H         1 COD3000     0.0000 
     55 H          -6.9038   46.1235    3.1534 H         1 COD3000     0.0000 
     56 H          -7.2858   46.0281    4.8811 H         1 COD3000     0.0000 
     57 H          -9.5646   46.6274    4.1395 H         1 COD3000     0.0000 
     58 H         -10.4569   45.6429    0.8968 H         1 COD3000     0.0000 
     59 H         -12.9743   44.3606    1.9024 H         1 COD3000     0.0000 
     60 H         -12.3893   44.4204    0.2308 H         1 COD3000     0.0000 
     61 H         -14.1783   45.8838    0.1970 H         1 COD3000     0.0000 
     62 H         -12.8178   46.9973    0.4188 H         1 COD3000     0.0000 
     63 H         -13.4414   48.6563    1.7521 H         1 COD3000     0.0000 
     64 H         -15.4805   48.0295    3.8385 H         1 COD3000     0.0000 
     65 H         -14.9453   49.6309    3.3009 H         1 COD3000     0.0000 
     66 H         -12.8624   49.3901    4.5923 H         1 COD3000     0.0000 
     67 H         -13.3286   47.7508    5.0774 H         1 COD3000     0.0000 
     68 H          -8.0423   44.4168    1.6249 H         1 COD3000     0.0000 
     69 H          -7.7345   43.1783    2.6034 H         1 COD3000     0.0000 
     70 H          -9.2481   43.5010    2.1665 H         1 COD3000     0.0000 
     71 H          -8.4407   43.3016    5.0760 H         1 COD3000     0.0000 
     72 H          -9.1725   44.6222    5.6297 H         1 COD3000     0.0000 
     73 H          -9.9493   43.6326    4.6279 H         1 COD3000     0.0000 
     74 H          -3.2538   44.0352   11.0284 H         1 COD3000     0.0000 
     75 H          -4.9062   44.4892    9.6376 H         1 COD3000     0.0000 
     76 H          -8.0053   46.8470    2.3831 H         1 COD3000     0.0000 
@<TRIPOS>BOND
     1    2    1 ar   
     2    6    1 ar   
     3    3    2 ar   
     4   45    2 1    
     5    4    3 ar   
     6    5    4 ar   
     7   10    4 1    
     8    6    5 ar   
     9    8    5 1    
    10    7    6 1    
    11   46    7 1    
    12   47    7 1    
    13    9    8 2    
    14   10    9 1    
    15   48    9 1    
    16   11   10 1    
    17   12   11 1    
    18   17   11 1    
    19   49   11 1    
    20   13   12 1    
    21   14   12 1    
    22   50   12 1    
    23   74   13 1    
    24   15   14 1    
    25   16   14 1    
    26   51   14 1    
    27   75   15 1    
    28   17   16 1    
    29   18   16 1    
    30   52   16 1    
    31   19   18 1    
    32   53   18 1    
    33   54   18 1    
    34   20   19 1    
    35   21   20 ar   
    36   22   20 ar   
    37   23   20 1    
    38   24   23 1    
    39   25   24 ar   
    40   26   24 ar   
    41   27   24 1    
    42   28   27 1    
    43   29   28 1    
    44   55   28 1    
    45   56   28 1    
    46   30   29 1    
    47   31   29 1    
    48   32   29 1    
    49   68   30 1    
    50   69   30 1    
    51   70   30 1    
    52   71   31 1    
    53   72   31 1    
    54   73   31 1    
    55   33   32 1    
    56   34   32 1    
    57   57   32 1    
    58   76   33 1    
    59   35   34 2    
    60   36   34 am   
    61   37   36 1    
    62   58   36 1    
    63   38   37 1    
    64   59   37 1    
    65   60   37 1    
    66   39   38 1    
    67   61   38 1    
    68   62   38 1    
    69   40   39 2    
    70   41   39 am   
    71   42   41 1    
    72   63   41 1    
    73   43   42 1    
    74   64   42 1    
    75   65   42 1    
    76   44   43 1    
    77   66   43 1    
    78   67   43 1    
@<TRIPOS>SUBSTRUCTURE
     1 COD3000     1 GROUP   
@<TRIPOS>SET

