#    Name: 2cmf_F11_1_INTS_M
#    Modification time : Tue Mar 25 01:05:52 2014

@<TRIPOS>MOLECULE
2cmf_F11_1_INTS_M
   66     0     3     0     0
SMALL
NO_CHARGES


@<TRIPOS>ATOM
      1 CA          1.9415   63.4060   67.7795 C.3       1 GLC5        0.0000 
      2 CA          3.3490   63.3290   69.4540 C.3       3 GLL5        0.0000 
      3 CA          0.5340   63.4830   66.1050 C.3       2 GLP5        0.0000 
      4 CA          4.0730   64.6560   68.5080 C.3       1 GLC5        0.0000 
      5 CA          4.7970   65.9830   67.5620 C.3       2 GLP5        0.0000 
      6 CA          5.1350   63.8455   67.8990 C.3       1 GLC5        0.0000 
      7 CA          4.4740   62.4170   68.8940 C.3       3 GLL5        0.0000 
      8 CA          5.7960   65.2740   66.9040 C.3       2 GLP5        0.0000 
      9 CA          6.2110   61.8915   67.9615 C.3       1 GLC5        0.0000 
     10 CA          7.9480   61.3660   67.0290 C.3       2 GLP5        0.0000 
     11 CA          6.8825   62.2095   70.0495 C.3       1 GLC5        0.0000 
     12 CA          5.1080   61.5750   70.0400 C.3       3 GLL5        0.0000 
     13 CA          8.6570   62.8440   70.0590 C.3       2 GLP5        0.0000 
     14 CA          1.2335   70.7910   66.3220 C.3       1 GLC5        0.0000 
     15 CA          1.4380   69.1680   67.4270 C.3       3 GLL5        0.0000 
     16 CA          1.0290   72.4140   65.2170 C.3       2 GLP5        0.0000 
     17 CA          3.2845   68.0790   67.9410 C.3       1 GLC5        0.0000 
     18 CA          5.1310   66.9900   68.4550 C.3       2 GLP5        0.0000 
     19 CA          2.9685   66.8315   67.5065 C.3       1 GLC5        0.0000 
     20 CA          1.1400   67.6800   67.4510 C.3       3 GLL5        0.0000 
     21 CA          3.2245   67.0905   68.6615 C.3       1 GLC5        0.0000 
     22 CA          1.3180   67.1910   68.8680 C.3       3 GLL5        0.0000 
     23 CA         -0.7845   63.0675   68.9625 C.3       1 GLC5        0.0000 
     24 CA          0.2530   65.0040   69.2530 C.3       3 GLL5        0.0000 
     25 CA         -1.8220   61.1310   68.6720 C.3       2 GLP5        0.0000 
     26 CA          7.2310   69.8970   62.2650 C.3       1 GLC5        0.0000 
     27 CA          5.6450   68.9320   62.6300 C.3       3 GLL5        0.0000 
     28 CA          8.8170   70.8620   61.9000 C.3       2 GLP5        0.0000 
     29 CA          6.1757   59.8457   70.5087 C.3       1 GLC5        0.0000 
     30 CA          7.7930   58.5910   70.7060 C.3       2 GLP5        0.0000 
     31 CA          4.4704   63.4350   71.1120 C.3       1 GLC5        0.0000 
     32 CA          4.4310   64.6460   72.6170 C.3       2 GLP5        0.0000 
     33 CA          3.1273   63.6394   71.6705 C.3       1 GLC5        0.0000 
     34 CA          2.3550   62.6420   70.3940 C.3       3 GLL5        0.0000 
     35 CA         -0.2020   68.9070   68.9670 C.3       1 GLC5        0.0000 
     36 CA         -1.6930   69.3900   70.4950 C.3       2 GLP5        0.0000 
     37 CA          0.2880   65.8353   67.1447 C.3       1 GLC5        0.0000 
     38 CA         -0.6530   64.2350   66.1300 C.3       2 GLP5        0.0000 
     39 CA         -0.4913   68.1185   69.8107 C.3       1 GLC5        0.0000 
     40 CA          0.1030   66.5030   69.3850 C.3       3 GLL5        0.0000 
     41 CA          1.5078   67.3355   70.8238 C.3       1 GLC5        0.0000 
     42 CA          2.3050   67.8240   72.5210 C.3       2 GLP5        0.0000 
     43 CA         -1.7765   65.6587   69.9510 C.3       1 GLC5        0.0000 
     44 CA         -3.7310   65.5640   70.5830 C.3       2 GLP5        0.0000 
     45 CA         -0.2375   64.9942   67.7245 C.3       1 GLC5        0.0000 
     46 CA          6.7655   67.6232   63.5000 C.3       1 GLC5        0.0000 
     47 CA          5.1810   69.2610   64.0180 C.3       3 GLL5        0.0000 
     48 CA          8.1180   66.1500   63.6760 C.3       2 GLP5        0.0000 
     49 CA          2.3297   70.8978   65.1472 C.3       1 GLC5        0.0000 
     50 CA          3.8250   69.1890   64.4150 C.3       3 GLL5        0.0000 
     51 CA          3.1422   70.3850   62.7650 C.3       1 GLC5        0.0000 
     52 CA          2.8140   68.7040   63.4030 C.3       3 GLL5        0.0000 
     53 CA          3.1840   72.4240   62.7290 C.3       2 GLP5        0.0000 
     54 CA          2.0288   67.0800   62.1725 C.3       1 GLC5        0.0000 
     55 CA          0.9570   65.8140   61.5440 C.3       2 GLP5        0.0000 
     56 CA          4.6905   66.9815   60.7002 C.3       1 GLC5        0.0000 
     57 CA          3.3870   67.9880   62.1990 C.3       3 GLL5        0.0000 
     58 CA          5.4430   65.5500   59.5010 C.3       2 GLP5        0.0000 
     59 CA          4.6725   70.7100   62.0015 C.3       1 GLC5        0.0000 
     60 CA          4.4890   68.8380   61.6000 C.3       3 GLL5        0.0000 
     61 CA          4.2780   72.5350   61.8880 C.3       2 GLP5        0.0000 
     62 CA          7.9093   68.7275   68.0147 C.3       1 GLC5        0.0000 
     63 CA          7.0090   70.3990   67.0750 C.3       3 GLL5        0.0000 
     64 CA          8.9150   66.8790   68.2860 C.3       2 GLP5        0.0000 
     65 CA          8.8233   70.6060   67.3812 C.3       1 GLC5        0.0000 
     66 CA         10.7430   70.6360   67.0190 C.3       2 GLP5        0.0000 
@<TRIPOS>BOND
@<TRIPOS>SUBSTRUCTURE
     1 GLC5        1 GROUP        1 X    GLC  0     ROOT GLC X 6
     2 GLP5        3 GROUP        1 Y    GLP  0     ROOT GLP Y 13
     3 GLL5        2 GROUP        1 Z    GLL  0     ROOT GLL Z 20
@<TRIPOS>SET

