#    Name: 2cmf_F11_1_ligand
#    Modification time : Tue Mar 25 01:05:52 2014

@<TRIPOS>MOLECULE
2cmf_F11_1_ligand
   71    76     1     0     0
SMALL
NO_CHARGES


@<TRIPOS>ATOM
      1 C1          2.6810   61.3490   70.9040 C.ar      1 F111536     0.0000 
      2 C2          2.3550   62.6420   70.3940 C.ar      1 F111536     0.0000 
      3 C3          3.3490   63.3290   69.4540 C.3       1 F111536     0.0000 
      4 C4          4.4740   62.4170   68.8940 C.3       1 F111536     0.0000 
      5 C5          5.1080   61.5750   70.0400 C.3       1 F111536     0.0000 
      6 C6          4.0090   60.6260   70.5830 C.3       1 F111536     0.0000 
      7 N7          1.7750   60.7160   71.7460 N.ar      1 F111536     0.0000 
      8 C8          0.5370   61.2540   72.1410 C.ar      1 F111536     0.0000 
      9 C9          0.1790   62.5740   71.6560 C.ar      1 F111536     0.0000 
     10 C10         1.1290   63.2700   70.7990 C.ar      1 F111536     0.0000 
     11 N11         0.7260   64.5200   70.5170 N.pl3     1 F111536     0.0000 
     12 C14        -1.1180   63.0830   72.0800 C.ar      1 F111536     0.0000 
     13 C15        -1.9500   62.3430   72.9190 C.ar      1 F111536     0.0000 
     14 C16        -1.5580   61.0380   73.4010 C.ar      1 F111536     0.0000 
     15 C17        -0.3220   60.4970   73.0080 C.ar      1 F111536     0.0000 
     16 C19         1.4380   69.1680   67.4270 C.3       1 F111536     0.0000 
     17 C20         1.1400   67.6800   67.4510 C.3       1 F111536     0.0000 
     18 C21         1.3180   67.1910   68.8680 C.3       1 F111536     0.0000 
     19 C24         0.1030   66.5030   69.3850 C.3       1 F111536     0.0000 
     20 C25         0.2530   65.0040   69.2530 C.3       1 F111536     0.0000 
     21 C26         5.1810   69.2610   64.0180 C.ar      1 F111536     0.0000 
     22 C27         3.8250   69.1890   64.4150 C.ar      1 F111536     0.0000 
     23 C28         2.8140   68.7040   63.4030 C.3       1 F111536     0.0000 
     24 C29         3.3870   67.9880   62.1990 C.3       1 F111536     0.0000 
     25 C30         4.4890   68.8380   61.6000 C.3       1 F111536     0.0000 
     26 C31         5.6450   68.9320   62.6300 C.3       1 F111536     0.0000 
     27 N32         6.1300   69.6630   64.9300 N.ar      1 F111536     0.0000 
     28 C33         5.8830   69.9980   66.2490 C.ar      1 F111536     0.0000 
     29 C34         4.5120   69.9460   66.7380 C.ar      1 F111536     0.0000 
     30 C35         3.4360   69.5740   65.7400 C.ar      1 F111536     0.0000 
     31 N36         2.1020   69.6260   66.1850 N.pl3     1 F111536     0.0000 
     32 C39         4.3660   70.3060   68.1340 C.ar      1 F111536     0.0000 
     33 C40         5.4600   70.6940   68.9400 C.ar      1 F111536     0.0000 
     34 C41         6.7980   70.7530   68.4120 C.ar      1 F111536     0.0000 
     35 C42         7.0090   70.3990   67.0750 C.ar      1 F111536     0.0000 
     36 H           3.8223   64.1757   69.9847 H         1 F111536     0.0000 
     37 H           2.7977   63.7625   68.5992 H         1 F111536     0.0000 
     38 H           5.2398   63.0331   68.4448 H         1 F111536     0.0000 
     39 H           4.0544   61.7479   68.1564 H         1 F111536     0.0000 
     40 H           5.4304   62.2303   70.8207 H         1 F111536     0.0000 
     41 H           5.9155   60.9961   69.6455 H         1 F111536     0.0000 
     42 H           3.8181   59.8459   69.8386 H         1 F111536     0.0000 
     43 H           4.3794   60.1424   71.4930 H         1 F111536     0.0000 
     44 H           0.7476   65.2611   71.2990 H         1 F111536     0.0000 
     45 H          -1.4016   64.0096   71.7393 H         1 F111536     0.0000 
     46 H          -2.8626   62.7127   73.2125 H         1 F111536     0.0000 
     47 H          -2.1826   60.5309   74.0173 H         1 F111536     0.0000 
     48 H          -0.0263   59.5803   73.3266 H         1 F111536     0.0000 
     49 H           2.0701   69.4124   68.3039 H         1 F111536     0.0000 
     50 H           0.4864   69.7177   67.5698 H         1 F111536     0.0000 
     51 H           1.8276   67.1643   66.7967 H         1 F111536     0.0000 
     52 H           0.1223   67.5113   67.1307 H         1 F111536     0.0000 
     53 H           1.5625   68.0491   69.5137 H         1 F111536     0.0000 
     54 H           2.1778   66.5036   68.9030 H         1 F111536     0.0000 
     55 H          -0.7765   66.8246   68.8222 H         1 F111536     0.0000 
     56 H          -0.0501   66.7551   70.4370 H         1 F111536     0.0000 
     57 H          -0.7141   64.5823   68.9982 H         1 F111536     0.0000 
     58 H           0.9587   64.7975   68.4547 H         1 F111536     0.0000 
     59 H           2.2123   69.5715   63.0508 H         1 F111536     0.0000 
     60 H           2.0915   68.0273   63.9115 H         1 F111536     0.0000 
     61 H           2.6070   67.8345   61.4623 H         1 F111536     0.0000 
     62 H           3.7935   67.0310   62.5048 H         1 F111536     0.0000 
     63 H           4.1241   69.8310   61.3982 H         1 F111536     0.0000 
     64 H           4.8640   68.3800   60.7003 H         1 F111536     0.0000 
     65 H           6.1795   67.9699   62.6297 H         1 F111536     0.0000 
     66 H           6.3525   69.6980   62.2779 H         1 F111536     0.0000 
     67 H           1.3889   70.0991   65.4837 H         1 F111536     0.0000 
     68 H           3.4168   70.2729   68.5432 H         1 F111536     0.0000 
     69 H           5.3091   70.9414   69.9250 H         1 F111536     0.0000 
     70 H           7.5568   71.0465   69.0098 H         1 F111536     0.0000 
     71 H           7.9357   70.4145   66.6614 H         1 F111536     0.0000 
@<TRIPOS>BOND
     1    2    1 ar   
     2    6    1 1    
     3    7    1 ar   
     4    3    2 1    
     5   10    2 ar   
     6    4    3 1    
     7   36    3 1    
     8   37    3 1    
     9    5    4 1    
    10   38    4 1    
    11   39    4 1    
    12    6    5 1    
    13   40    5 1    
    14   41    5 1    
    15   42    6 1    
    16   43    6 1    
    17    8    7 ar   
    18    9    8 ar   
    19   15    8 ar   
    20   10    9 ar   
    21   12    9 ar   
    22   11   10 1    
    23   20   11 1    
    24   44   11 1    
    25   13   12 ar   
    26   45   12 1    
    27   14   13 ar   
    28   46   13 1    
    29   15   14 ar   
    30   47   14 1    
    31   48   15 1    
    32   17   16 1    
    33   31   16 1    
    34   49   16 1    
    35   50   16 1    
    36   18   17 1    
    37   51   17 1    
    38   52   17 1    
    39   19   18 1    
    40   53   18 1    
    41   54   18 1    
    42   20   19 1    
    43   55   19 1    
    44   56   19 1    
    45   57   20 1    
    46   58   20 1    
    47   22   21 ar   
    48   26   21 1    
    49   27   21 ar   
    50   23   22 1    
    51   30   22 ar   
    52   24   23 1    
    53   59   23 1    
    54   60   23 1    
    55   25   24 1    
    56   61   24 1    
    57   62   24 1    
    58   26   25 1    
    59   63   25 1    
    60   64   25 1    
    61   65   26 1    
    62   66   26 1    
    63   28   27 ar   
    64   29   28 ar   
    65   35   28 ar   
    66   30   29 ar   
    67   32   29 ar   
    68   31   30 1    
    69   67   31 1    
    70   33   32 ar   
    71   68   32 1    
    72   34   33 ar   
    73   69   33 1    
    74   35   34 ar   
    75   70   34 1    
    76   71   35 1    
@<TRIPOS>SUBSTRUCTURE
     1 F111536     1 GROUP   
@<TRIPOS>SET

