#    Name: 2uzl_C94_2_INTS_M
#    Modification time : Tue Mar 25 00:36:05 2014

@<TRIPOS>MOLECULE
2uzl_C94_2_INTS_M
   68     0     9     0     0
SMALL
NO_CHARGES


@<TRIPOS>ATOM
      1 N         -11.5925  -22.2980   41.7510 N.am      2 SEC2        0.0000 
      2 N         -12.7960  -22.5240   42.7450 N.am      8 SEL2        0.0000 
      3 N         -10.3890  -22.0720   40.7570 N.am      5 SEP2        0.0000 
      4 O         -11.7120  -20.5910   44.3380 O.2       1 ALC1        0.0000 
      5 O         -13.1410  -20.9170   44.5990 O.2       7 ALL1        0.0000 
      6 O         -10.2830  -20.2650   44.0770 O.2       4 ALP1        0.0000 
      7 CA        -15.5045  -22.2860   38.1265 C.3       3 GLC5        0.0000 
      8 CA        -16.3720  -21.3060   39.7280 C.3       9 GLL5        0.0000 
      9 CA        -14.6370  -23.2660   36.5250 C.3       6 GLP5        0.0000 
     10 CA        -18.0615  -20.2790   42.1940 C.3       3 GLC5        0.0000 
     11 CA        -16.6980  -21.2000   41.8630 C.3       9 GLL5        0.0000 
     12 CA        -19.4250  -19.3580   42.5250 C.3       6 GLP5        0.0000 
     13 CA        -10.9620  -19.8155   42.0785 C.3       3 GLC5        0.0000 
     14 CA        -12.8860  -19.1660   42.1180 C.3       9 GLL5        0.0000 
     15 CA         -9.0380  -20.4650   42.0390 C.3       6 GLP5        0.0000 
     16 CA        -14.1485  -18.4960   36.3700 C.3       3 GLC5        0.0000 
     17 CA        -14.3970  -16.9660   37.9260 C.3       9 GLL5        0.0000 
     18 CA        -13.9000  -20.0260   34.8140 C.3       6 GLP5        0.0000 
     19 CA        -14.9070  -14.2830   39.8675 C.3       3 GLC5        0.0000 
     20 CA        -13.4160  -14.9940   38.3610 C.3       9 GLL5        0.0000 
     21 CA        -16.3980  -13.5720   41.3740 C.3       6 GLP5        0.0000 
     22 CA        -13.4655  -12.1260   36.9130 C.3       3 GLC5        0.0000 
     23 CA        -12.8860  -13.6150   38.2550 C.3       9 GLL5        0.0000 
     24 CA        -14.0450  -10.6370   35.5710 C.3       6 GLP5        0.0000 
     25 CA        -12.2210  -11.1890   40.3510 C.3       3 GLC5        0.0000 
     26 CA        -12.1490  -13.1200   39.2710 C.3       9 GLL5        0.0000 
     27 CA        -12.2930   -9.2580   41.4310 C.3       6 GLP5        0.0000 
     28 CA        -10.0680  -13.5715   38.6660 C.3       3 GLC5        0.0000 
     29 CA         -7.9870  -14.0230   38.0610 C.3       6 GLP5        0.0000 
     30 CA        -13.5880  -13.1010   41.9505 C.3       3 GLC5        0.0000 
     31 CA        -12.0180  -13.8270   40.7730 C.3       9 GLL5        0.0000 
     32 CA        -15.1580  -12.3750   43.1280 C.3       6 GLP5        0.0000 
     33 CA        -11.2475  -15.1545   39.1295 C.3       3 GLC5        0.0000 
     34 CA        -10.4770  -16.4820   37.4860 C.3       6 GLP5        0.0000 
     35 CA        -11.5590  -12.1700   43.3820 C.3       3 GLC5        0.0000 
     36 CA        -11.0070  -12.6200   41.3090 C.3       9 GLL5        0.0000 
     37 CA        -12.1110  -11.7200   45.4550 C.3       6 GLP5        0.0000 
     38 CA        -11.6500  -10.9390   41.3700 C.3       3 GLC5        0.0000 
     39 CA         -9.2255  -11.7550   41.4460 C.3       3 GLC5        0.0000 
     40 CA         -7.4440  -10.8900   41.5830 C.3       6 GLP5        0.0000 
     41 O          -9.6795  -11.4515   42.9580 O.2       1 ALC1        0.0000 
     42 O         -10.5170  -12.5740   42.4800 O.2       7 ALL1        0.0000 
     43 O          -8.8420  -10.3290   43.4360 O.2       4 ALP1        0.0000 
     44 CA        -13.2602  -21.5807   40.5115 C.3       3 GLC5        0.0000 
     45 CA        -13.7940  -20.2100   42.0330 C.3       9 GLL5        0.0000 
     46 CA        -12.2460  -22.9470   39.5000 C.3       6 GLP5        0.0000 
     47 CA        -17.1133  -20.9678   38.8468 C.3       3 GLC5        0.0000 
     48 CA        -15.7790  -21.3470   40.9150 C.3       9 GLL5        0.0000 
     49 CA        -18.1510  -20.6090   37.3720 C.3       6 GLP5        0.0000 
     50 CA        -16.8002  -19.2518   40.5680 C.3       3 GLC5        0.0000 
     51 CA        -14.7550  -20.2190   41.0130 C.3       9 GLL5        0.0000 
     52 CA        -17.7810  -17.4590   40.7900 C.3       6 GLP5        0.0000 
     53 CA        -14.0854  -22.2835   39.9296 C.3       3 GLC5        0.0000 
     54 CA        -16.0535  -18.0592   40.4597 C.3       3 GLC5        0.0000 
     55 CA        -14.7850  -19.1790   40.0820 C.3       9 GLL5        0.0000 
     56 CA        -11.6494  -18.4526   40.3264 C.3       3 GLC5        0.0000 
     57 CA        -13.8670  -18.1400   40.1770 C.3       9 GLL5        0.0000 
     58 CA        -10.1570  -18.2540   39.2500 C.3       6 GLP5        0.0000 
     59 CA        -15.9575  -17.2200   39.6795 C.3       3 GLC5        0.0000 
     60 CA        -13.8710  -16.9960   39.2120 C.3       9 GLL5        0.0000 
     61 CA        -15.6070  -15.2410   37.5115 C.3       3 GLC5        0.0000 
     62 CA        -16.9570  -14.1450   37.3630 C.3       6 GLP5        0.0000 
     63 CA        -15.3285  -16.8420   35.7945 C.3       3 GLC5        0.0000 
     64 CA        -14.1170  -15.7080   37.3940 C.3       9 GLL5        0.0000 
     65 CA        -16.4000  -17.3470   33.9290 C.3       6 GLP5        0.0000 
     66 CA        -15.0540  -14.2248   37.8355 C.3       3 GLC5        0.0000 
     67 CA        -11.4972  -14.9247   38.1245 C.3       3 GLC5        0.0000 
     68 CA        -12.2136  -16.3240   37.8546 C.3       3 GLC5        0.0000 
@<TRIPOS>BOND
@<TRIPOS>SUBSTRUCTURE
     1 ALC1        4 GROUP        1 X    ALC  0     ROOT ALC X 1
     2 SEC2        1 GROUP        1 X    SEC  0     **** SEC X 2
     3 GLC5        7 GROUP        1 X    GLC  0     **** GLC X 6
     4 ALP1        6 GROUP        1 Y    ALP  0     ROOT ALP Y 8
     5 SEP2        3 GROUP        1 Y    SEP  0     **** SEP Y 9
     6 GLP5        9 GROUP        1 Y    GLP  0     **** GLP Y 13
     7 ALL1        5 GROUP        1 Z    ALL  0     ROOT ALL Z 15
     8 SEL2        2 GROUP        1 Z    SEL  0     **** SEL Z 16
     9 GLL5        8 GROUP        1 Z    GLL  0     **** GLL Z 20
@<TRIPOS>SET

