#    Name: 2uzl_C94_2_ligand
#    Modification time : Tue Mar 25 00:36:05 2014

@<TRIPOS>MOLECULE
2uzl_C94_2_ligand
   38    40     1     0     0
SMALL
NO_CHARGES


@<TRIPOS>ATOM
      1 O4        -12.7960  -22.5240   42.7450 O.2       1 C941297     0.0000 
      2 S2        -13.6960  -21.5070   43.2190 S.o2      1 C941297     0.0000 
      3 O3        -14.9990  -22.0740   43.4280 O.2       1 C941297     0.0000 
      4 N6        -13.1410  -20.9170   44.5990 N.pl3     1 C941297     0.0000 
      5 C16       -13.7940  -20.2100   42.0330 C.ar      1 C941297     0.0000 
      6 C15       -14.7550  -20.2190   41.0130 C.ar      1 C941297     0.0000 
      7 C24       -15.7790  -21.3470   40.9150 C.3       1 C941297     0.0000 
      8 F26       -15.1760  -22.5210   41.0660 F         1 C941297     0.0000 
      9 F27       -16.3720  -21.3060   39.7280 F         1 C941297     0.0000 
     10 F25       -16.6980  -21.2000   41.8630 F         1 C941297     0.0000 
     11 C14       -14.7850  -19.1790   40.0820 C.ar      1 C941297     0.0000 
     12 C13       -13.8670  -18.1400   40.1770 C.ar      1 C941297     0.0000 
     13 C18       -12.9280  -18.1330   41.1980 C.ar      1 C941297     0.0000 
     14 C17       -12.8860  -19.1660   42.1180 C.ar      1 C941297     0.0000 
     15 C4        -13.8710  -16.9960   39.2120 C.2       1 C941297     0.0000 
     16 O2        -13.2700  -15.7970   39.4520 O.3       1 C941297     0.0000 
     17 C3        -14.3970  -16.9660   37.9260 C.2       1 C941297     0.0000 
     18 C2        -14.1170  -15.7080   37.3940 C.2       1 C941297     0.0000 
     19 C1        -13.4160  -14.9940   38.3610 C.2       1 C941297     0.0000 
     20 C6        -12.8860  -13.6150   38.2550 C.2       1 C941297     0.0000 
     21 C7        -12.1490  -13.1200   39.2710 C.2       1 C941297     0.0000 
     22 S1        -12.0180  -13.8270   40.7730 S.3       1 C941297     0.0000 
     23 C9        -11.0070  -12.6200   41.3090 C.2       1 C941297     0.0000 
     24 N3        -10.5170  -12.5740   42.4800 N.pl3     1 C941297     0.0000 
     25 N2        -10.7590  -11.7070   40.3640 N.am      1 C941297     0.0000 
     26 C8        -11.3780  -11.9620   39.2030 C.2       1 C941297     0.0000 
     27 O1        -11.2750  -11.2550   38.2060 O.2       1 C941297     0.0000 
     28 H         -13.8297  -20.5935   45.2478 H         1 C941297     0.0000 
     29 H         -12.1471  -20.9160   44.7091 H         1 C941297     0.0000 
     30 H         -15.4840  -19.1844   39.3308 H         1 C941297     0.0000 
     31 H         -12.2568  -17.3515   41.2708 H         1 C941297     0.0000 
     32 H         -12.1788  -19.1600   42.8680 H         1 C941297     0.0000 
     33 H         -14.8571  -17.6636   37.4924 H         1 C941297     0.0000 
     34 H         -14.3586  -15.3997   36.5373 H         1 C941297     0.0000 
     35 H         -13.1064  -13.1007   37.4095 H         1 C941297     0.0000 
     36 H         -10.7684  -13.3239   43.0919 H         1 C941297     0.0000 
     37 H          -9.9262  -11.7922   42.6794 H         1 C941297     0.0000 
     38 H         -10.1690  -10.9105   40.5081 H         1 C941297     0.0000 
@<TRIPOS>BOND
     1    2    1 2    
     2    3    2 2    
     3    4    2 1    
     4    5    2 1    
     5   28    4 1    
     6   29    4 1    
     7    6    5 ar   
     8   14    5 ar   
     9    7    6 1    
    10   11    6 ar   
    11    8    7 1    
    12    9    7 1    
    13   10    7 1    
    14   12   11 ar   
    15   30   11 1    
    16   13   12 ar   
    17   15   12 1    
    18   14   13 ar   
    19   31   13 1    
    20   32   14 1    
    21   16   15 1    
    22   17   15 2    
    23   19   16 1    
    24   18   17 1    
    25   33   17 1    
    26   19   18 2    
    27   34   18 1    
    28   20   19 1    
    29   21   20 2    
    30   35   20 1    
    31   22   21 1    
    32   26   21 1    
    33   23   22 1    
    34   24   23 2    
    35   25   23 1    
    36   36   24 1    
    37   37   24 1    
    38   26   25 am   
    39   38   25 1    
    40   27   26 2    
@<TRIPOS>SUBSTRUCTURE
     1 C941297     1 GROUP   
@<TRIPOS>SET

