#    Name: 3wfg_WFG_1_INTS_M
#    Modification time : Tue Mar 25 02:32:30 2014

@<TRIPOS>MOLECULE
3wfg_WFG_1_INTS_M
   77     0     9     0     0
SMALL
NO_CHARGES


@<TRIPOS>ATOM
      1 CA          0.8680   32.5180   43.3880 C.3       3 GLC5        0.0000 
      2 CA          1.5810   30.8420   42.2480 C.3       9 GLL5        0.0000 
      3 CA          0.1550   34.1940   44.5280 C.3       6 GLP5        0.0000 
      4 CA         -1.0480   33.2105   41.5610 C.3       3 GLC5        0.0000 
      5 CA          0.7280   33.6720   40.6850 C.3       9 GLL5        0.0000 
      6 CA         -2.8240   32.7490   42.4370 C.3       6 GLP5        0.0000 
      7 CA          2.9705   32.6775   36.8135 C.3       3 GLC5        0.0000 
      8 CA          1.7030   33.1140   38.5870 C.3       9 GLL5        0.0000 
      9 CA          4.2380   32.2410   35.0400 C.3       6 GLP5        0.0000 
     10 CA          1.1950   36.6795   41.6420 C.3       3 GLC5        0.0000 
     11 CA          1.4630   34.8340   40.7160 C.3       9 GLL5        0.0000 
     12 CA          0.9270   38.5250   42.5680 C.3       6 GLP5        0.0000 
     13 CA          3.0280   35.1235   37.0620 C.3       3 GLC5        0.0000 
     14 CA          2.4320   34.2870   38.6260 C.3       9 GLL5        0.0000 
     15 CA          3.6240   35.9600   35.4980 C.3       6 GLP5        0.0000 
     16 CA          0.8040   27.9315   44.2505 C.3       3 GLC5        0.0000 
     17 CA         -0.0380   29.7500   44.1750 C.3       9 GLL5        0.0000 
     18 CA          1.6460   26.1130   44.3260 C.3       6 GLP5        0.0000 
     19 CA         -1.0915   33.2635   39.2095 C.3       3 GLC5        0.0000 
     20 CA          0.0430   31.5530   39.5980 C.3       9 GLL5        0.0000 
     21 CA         -2.2260   34.9740   38.8210 C.3       6 GLP5        0.0000 
     22 CA         -0.6945   31.4210   46.8805 C.3       3 GLC5        0.0000 
     23 CA          0.7340   29.9610   46.7970 C.3       9 GLL5        0.0000 
     24 CA         -2.1230   32.8810   46.9640 C.3       6 GLP5        0.0000 
     25 CA          1.0675   31.7720   46.2100 C.3       3 GLC5        0.0000 
     26 CA          1.4010   33.5830   45.6230 C.3       6 GLP5        0.0000 
     27 CA          2.0375   30.9255   47.4560 C.3       3 GLC5        0.0000 
     28 CA          3.3410   31.8900   48.1150 C.3       6 GLP5        0.0000 
     29 CA          2.0630   28.5585   46.5320 C.3       3 GLC5        0.0000 
     30 CA          3.3920   27.1560   46.2670 C.3       6 GLP5        0.0000 
     31 CA          1.0120   29.4525   48.6835 C.3       3 GLC5        0.0000 
     32 CA          1.2900   28.9440   50.5700 C.3       6 GLP5        0.0000 
     33 CA         -2.5210   30.7250   40.9280 C.3       3 GLC5        0.0000 
     34 CA         -1.1680   29.6060   40.0370 C.3       9 GLL5        0.0000 
     35 CA         -3.8740   31.8440   41.8190 C.3       6 GLP5        0.0000 
     36 CA          0.0160   26.5130   39.7580 C.3       3 GLC5        0.0000 
     37 CA         -0.5990   28.2150   40.0690 C.3       9 GLL5        0.0000 
     38 CA          0.6310   24.8110   39.4470 C.3       6 GLP5        0.0000 
     39 CA          1.2630   28.0690   40.4425 C.3       3 GLC5        0.0000 
     40 CA          3.1250   27.9230   40.8160 C.3       6 GLP5        0.0000 
     41 O          -1.9900   28.5420   44.6885 O.2       1 ALC1        0.0000 
     42 O          -0.8570   29.1790   45.1770 O.2       7 ALL1        0.0000 
     43 O          -3.1230   27.9050   44.2000 O.2       4 ALP1        0.0000 
     44 N          -2.5285   27.9395   46.7870 N.am      2 SEC2        0.0000 
     45 N          -1.1990   28.6880   47.3840 N.am      8 SEL2        0.0000 
     46 N          -3.8580   27.1910   46.1900 N.am      5 SEP2        0.0000 
     47 N          -0.2680   27.9835   48.1835 N.am      2 SEC2        0.0000 
     48 N           0.6630   27.2790   48.9830 N.am      5 SEP2        0.0000 
     49 CA          3.2325   37.7615   40.6185 C.3       3 GLC5        0.0000 
     50 CA          3.0170   36.2960   39.7420 C.3       9 GLL5        0.0000 
     51 CA          3.4480   39.2270   41.4950 C.3       6 GLP5        0.0000 
     52 CA          3.3048   32.0055   42.1390 C.3       3 GLC5        0.0000 
     53 CA          4.7870   33.2660   41.3920 C.3       6 GLP5        0.0000 
     54 CA          0.6253   34.2235   42.6142 C.3       3 GLC5        0.0000 
     55 CA          3.8163   33.0892   38.9027 C.3       3 GLC5        0.0000 
     56 CA          5.5650   32.4780   39.1990 C.3       6 GLP5        0.0000 
     57 CA          2.4265   28.6562   44.3925 C.3       3 GLC5        0.0000 
     58 CA          1.2420   30.1070   44.4980 C.3       9 GLL5        0.0000 
     59 CA          3.2000   26.9350   44.7740 C.3       6 GLP5        0.0000 
     60 CA          2.8776   33.3937   40.7789 C.3       3 GLC5        0.0000 
     61 CA          2.0874   29.2737   41.6075 C.3       3 GLC5        0.0000 
     62 CA         -1.4530   31.3679   42.8635 C.3       3 GLC5        0.0000 
     63 CA         -0.5290   29.9430   42.8980 C.3       9 GLL5        0.0000 
     64 CA          1.1042   31.8234   44.8580 C.3       3 GLC5        0.0000 
     65 CA          1.1409   35.0679   37.7174 C.3       3 GLC5        0.0000 
     66 CA          2.2920   35.1370   39.6850 C.3       9 GLL5        0.0000 
     67 CA          0.1020   35.7170   36.2890 C.3       6 GLP5        0.0000 
     68 CA          3.4892   36.7523   38.5847 C.3       3 GLC5        0.0000 
     69 CA          4.3240   37.7880   37.4560 C.3       6 GLP5        0.0000 
     70 CA          3.7207   34.4912   40.5528 C.3       3 GLC5        0.0000 
     71 CA         -1.4617   31.9263   41.2550 C.3       3 GLC5        0.0000 
     72 CA         -2.3368   28.0493   39.4540 C.3       3 GLC5        0.0000 
     73 CA         -3.7900   27.1880   38.8550 C.3       6 GLP5        0.0000 
     74 CA          1.2831   29.6279   39.6850 C.3       3 GLC5        0.0000 
     75 CA          3.2000   28.9010   39.3150 C.3       6 GLP5        0.0000 
     76 CA         -0.8652   27.9838   38.2215 C.3       3 GLC5        0.0000 
     77 CA         -0.8470   27.0570   36.3900 C.3       6 GLP5        0.0000 
@<TRIPOS>BOND
@<TRIPOS>SUBSTRUCTURE
     1 ALC1       41 GROUP        1 X    ALC  0     ROOT ALC X 1
     2 SEC2       44 GROUP        1 X    SEC  0     **** SEC X 2
     3 GLC5        1 GROUP        1 X    GLC  0     **** GLC X 6
     4 ALP1       43 GROUP        1 Y    ALP  0     ROOT ALP Y 8
     5 SEP2       46 GROUP        1 Y    SEP  0     **** SEP Y 9
     6 GLP5        3 GROUP        1 Y    GLP  0     **** GLP Y 13
     7 ALL1       42 GROUP        1 Z    ALL  0     ROOT ALL Z 15
     8 SEL2       45 GROUP        1 Z    SEL  0     **** SEL Z 16
     9 GLL5        2 GROUP        1 Z    GLL  0     **** GLL Z 20
@<TRIPOS>SET

