#    Name: 3wfg_WFG_1_ligand
#    Modification time : Tue Mar 25 02:32:30 2014

@<TRIPOS>MOLECULE
3wfg_WFG_1_ligand
   39    42     1     0     0
SMALL
NO_CHARGES


@<TRIPOS>ATOM
      1 C1          1.5810   30.8420   42.2480 C.ar      1 WFG1001     0.0000 
      2 C2          0.7280   33.6720   40.6850 C.ar      1 WFG1001     0.0000 
      3 C3          1.7030   33.1140   38.5870 C.ar      1 WFG1001     0.0000 
      4 C4          2.0640   30.6480   43.5240 C.ar      1 WFG1001     0.0000 
      5 C5          1.4630   34.8340   40.7160 C.ar      1 WFG1001     0.0000 
      6 C6          2.4320   34.2870   38.6260 C.ar      1 WFG1001     0.0000 
      7 C7         -0.5290   29.9430   42.8980 C.ar      1 WFG1001     0.0000 
      8 C8          0.8410   32.7900   39.6310 C.ar      1 WFG1001     0.0000 
      9 C9          0.2770   30.5040   41.9120 C.ar      1 WFG1001     0.0000 
     10 C10        -0.0380   29.7500   44.1750 C.ar      1 WFG1001     0.0000 
     11 C11         1.2420   30.1070   44.4980 C.ar      1 WFG1001     0.0000 
     12 C12         2.2920   35.1370   39.6850 C.ar      1 WFG1001     0.0000 
     13 C13         0.0430   31.5530   39.5980 C.2       1 WFG1001     0.0000 
     14 C14        -0.2420   30.6540   40.5480 C.2       1 WFG1001     0.0000 
     15 C15        -0.7510   31.1550   38.4010 C.2       1 WFG1001     0.0000 
     16 C16        -0.5200   29.1930   46.4870 C.2       1 WFG1001     0.0000 
     17 C17         0.7340   29.9610   46.7970 C.3       1 WFG1001     0.0000 
     18 C18        -1.1680   29.6060   40.0370 C.3       1 WFG1001     0.0000 
     19 C19        -0.5990   28.2150   40.0690 C.3       1 WFG1001     0.0000 
     20 N20        -0.8570   29.1790   45.1770 N.am      1 WFG1001     0.0000 
     21 O21        -0.8170   31.7190   37.3130 O.2       1 WFG1001     0.0000 
     22 O22        -1.1990   28.6880   47.3840 O.2       1 WFG1001     0.0000 
     23 O23         1.7440   29.8890   45.7790 O.3       1 WFG1001     0.0000 
     24 O24        -1.4140   30.0070   38.6890 O.3       1 WFG1001     0.0000 
     25 F25         3.0170   36.2960   39.7420 F         1 WFG1001     0.0000 
     26 H           2.2014   31.2490   41.5199 H         1 WFG1001     0.0000 
     27 H           0.0780   33.4541   41.4659 H         1 WFG1001     0.0000 
     28 H           1.7944   32.4735   37.7843 H         1 WFG1001     0.0000 
     29 H           3.0349   30.9042   43.7558 H         1 WFG1001     0.0000 
     30 H           1.3784   35.4710   41.5279 H         1 WFG1001     0.0000 
     31 H           3.0783   34.5132   37.8534 H         1 WFG1001     0.0000 
     32 H          -1.4981   29.6711   42.6698 H         1 WFG1001     0.0000 
     33 H           1.1328   29.5890   47.7729 H         1 WFG1001     0.0000 
     34 H           0.4473   31.0239   46.9912 H         1 WFG1001     0.0000 
     35 H          -2.0830   29.6458   40.6007 H         1 WFG1001     0.0000 
     36 H          -1.7542   28.7342   44.8661 H         1 WFG1001     0.0000 
     37 H           0.2305   28.1402   39.5155 H         1 WFG1001     0.0000 
     38 H          -0.3579   27.9336   40.9978 H         1 WFG1001     0.0000 
     39 H          -1.2478   27.5402   39.7174 H         1 WFG1001     0.0000 
@<TRIPOS>BOND
     1    4    1 ar   
     2    9    1 ar   
     3   26    1 1    
     4    5    2 ar   
     5    8    2 ar   
     6   27    2 1    
     7    6    3 ar   
     8    8    3 ar   
     9   28    3 1    
    10   11    4 ar   
    11   29    4 1    
    12   12    5 ar   
    13   30    5 1    
    14   12    6 ar   
    15   31    6 1    
    16    9    7 ar   
    17   10    7 ar   
    18   32    7 1    
    19   13    8 1    
    20   14    9 1    
    21   11   10 ar   
    22   20   10 1    
    23   23   11 1    
    24   25   12 1    
    25   14   13 2    
    26   15   13 1    
    27   18   14 1    
    28   21   15 2    
    29   24   15 1    
    30   17   16 1    
    31   20   16 am   
    32   22   16 2    
    33   23   17 1    
    34   33   17 1    
    35   34   17 1    
    36   19   18 1    
    37   24   18 1    
    38   35   18 1    
    39   37   19 1    
    40   38   19 1    
    41   39   19 1    
    42   36   20 1    
@<TRIPOS>SUBSTRUCTURE
     1 WFG1001     1 GROUP   
@<TRIPOS>SET

