#    Name: 1yc2_APR_4_INTS_M
#    Modification time : Tue Mar 25 10:56:36 2014

@<TRIPOS>MOLECULE
1yc2_APR_4_INTS_M
   99     0     9     0     0
SMALL
NO_CHARGES


@<TRIPOS>ATOM
      1 N         -40.5365    8.4340    2.5740 N.am      2 SEC2        0.0000 
      2 N         -40.2710    8.3740    1.1660 N.am      8 SEL2        0.0000 
      3 N         -40.8020    8.4940    3.9820 N.am      5 SEP2        0.0000 
      4 CA        -37.5380    6.7905    0.6570 C.3       3 GLC5        0.0000 
      5 CA        -39.4760    7.2980    1.0470 C.3       9 GLL5        0.0000 
      6 CA        -35.6000    6.2830    0.2670 C.3       6 GLP5        0.0000 
      7 CA        -39.2295    5.1990    1.0785 C.3       3 GLC5        0.0000 
      8 CA        -38.9830    3.1000    1.1100 C.3       6 GLP5        0.0000 
      9 CA        -40.8285    6.3440   -0.3340 C.3       3 GLC5        0.0000 
     10 CA        -42.1810    5.3900   -1.7150 C.3       6 GLP5        0.0000 
     11 CA        -41.2065    7.5805    2.0415 C.3       3 GLC5        0.0000 
     12 CA        -42.9370    7.8630    3.0360 C.3       6 GLP5        0.0000 
     13 CA        -39.0160    8.3375    2.6960 C.3       3 GLC5        0.0000 
     14 CA        -38.5560    9.3770    4.3450 C.3       6 GLP5        0.0000 
     15 N         -39.9055    5.4440   -0.2185 N.am      2 SEC2        0.0000 
     16 N         -39.0540    6.8210   -0.1980 N.am      8 SEL2        0.0000 
     17 N         -40.7570    4.0670   -0.2390 N.am      5 SEP2        0.0000 
     18 CA        -37.5570    6.9095   -0.5220 C.3       3 GLC5        0.0000 
     19 CA        -39.5140    7.5360   -1.3110 C.3       9 GLL5        0.0000 
     20 CA        -41.8535    8.4995    1.5760 C.3       3 GLC5        0.0000 
     21 CA        -40.7700    9.1360    0.1160 C.3       9 GLL5        0.0000 
     22 O         -42.0675   10.8085    1.6490 O.2       1 ALC1        0.0000 
     23 O         -41.5510   10.1860    0.3080 O.2       7 ALL1        0.0000 
     24 O         -42.5840   11.4310    2.9900 O.2       4 ALP1        0.0000 
     25 CA        -37.3855    7.7880   -2.3765 C.3       3 GLC5        0.0000 
     26 CA        -38.4170    6.1810   -3.1280 C.3       9 GLL5        0.0000 
     27 CA        -36.3540    9.3950   -1.6250 C.3       6 GLP5        0.0000 
     28 CA        -37.0085    6.2320   -1.4305 C.3       3 GLC5        0.0000 
     29 CA        -40.2990    5.7855   -2.4215 C.3       3 GLC5        0.0000 
     30 CA        -39.6490    3.8640   -4.7125 C.3       3 GLC5        0.0000 
     31 CA        -38.6970    5.7860   -4.5910 C.3       9 GLL5        0.0000 
     32 CA        -40.6010    1.9420   -4.8340 C.3       6 GLP5        0.0000 
     33 O         -39.8970    4.0570   -5.8100 O.2       1 ALC1        0.0000 
     34 O         -39.8390    5.0200   -4.7940 O.2       7 ALL1        0.0000 
     35 O         -39.9550    3.0940   -6.8260 O.2       4 ALP1        0.0000 
     36 N         -37.6050    3.1075   -3.5625 N.am      2 SEC2        0.0000 
     37 N         -37.3080    3.7350   -4.9300 N.am      8 SEL2        0.0000 
     38 N         -37.9020    2.4800   -2.1950 N.am      5 SEP2        0.0000 
     39 CA        -35.9550    6.0295   -1.8630 C.3       3 GLC5        0.0000 
     40 CA        -36.3100    5.7760   -3.9930 C.3       9 GLL5        0.0000 
     41 CA        -36.3820    8.4230   -4.9095 C.3       3 GLC5        0.0000 
     42 CA        -35.2590    6.6570   -4.5980 C.3       9 GLL5        0.0000 
     43 CA        -37.5050   10.1890   -5.2210 C.3       6 GLP5        0.0000 
     44 N         -33.9515    4.4615   -4.7845 N.am      2 SEC2        0.0000 
     45 N         -34.4810    5.8210   -5.5080 N.am      8 SEL2        0.0000 
     46 N         -33.4220    3.1020   -4.0610 N.am      5 SEP2        0.0000 
     47 N         -31.9330    5.5475   -8.4930 N.am      2 SEC2        0.0000 
     48 N         -33.0330    5.3110   -7.4150 N.am      8 SEL2        0.0000 
     49 N         -30.8330    5.7840   -9.5710 N.am      5 SEP2        0.0000 
     50 N         -32.9480    4.1410   -7.1345 N.am      2 SEC2        0.0000 
     51 N         -32.8630    2.9710   -6.8540 N.am      5 SEP2        0.0000 
     52 N         -34.5775    8.7430   -8.0245 N.am      2 SEC2        0.0000 
     53 N         -34.3390    7.5180   -7.3740 N.am      8 SEL2        0.0000 
     54 N         -34.8160    9.9680   -8.6750 N.am      5 SEP2        0.0000 
     55 N         -34.7840    7.4635   -8.6535 N.am      2 SEC2        0.0000 
     56 N         -35.2290    7.4090   -9.9330 N.am      5 SEP2        0.0000 
     57 N         -31.0345    4.6060   -3.4180 N.am      2 SEC2        0.0000 
     58 N         -31.2190    5.3640   -4.5360 N.am      8 SEL2        0.0000 
     59 N         -30.8500    3.8480   -2.3000 N.am      5 SEP2        0.0000 
     60 N         -32.3205    4.2330   -4.2985 N.am      2 SEC2        0.0000 
     61 N         -31.4595    8.6495   -3.4595 N.am      2 SEC2        0.0000 
     62 N         -30.6400    7.8240   -4.2280 N.am      8 SEL2        0.0000 
     63 N         -32.2790    9.4750   -2.6910 N.am      5 SEP2        0.0000 
     64 N         -28.7285    6.3480  -10.0075 N.am      2 SEC2        0.0000 
     65 N         -28.2270    7.5200   -8.9210 N.am      8 SEL2        0.0000 
     66 N         -29.2300    5.1760  -11.0940 N.am      5 SEP2        0.0000 
     67 N         -29.5300    6.6520   -9.2460 N.am      2 SEC2        0.0000 
     68 N         -28.7685    8.4480  -11.9100 N.am      2 SEC2        0.0000 
     69 N         -27.4820    8.3850  -10.9120 N.am      8 SEL2        0.0000 
     70 N         -30.0550    8.5110  -12.9080 N.am      5 SEP2        0.0000 
     71 CA        -30.0030    9.5540   -9.4980 C.3       3 GLC5        0.0000 
     72 CA        -28.1000    8.7240   -9.6950 C.3       9 GLL5        0.0000 
     73 CA        -31.9060   10.3840   -9.3010 C.3       6 GLP5        0.0000 
     74 CA        -28.6920    9.8015  -11.4650 C.3       3 GLC5        0.0000 
     75 CA        -29.2840   10.8790  -13.2350 C.3       6 GLP5        0.0000 
     76 CA        -28.7595   11.0465   -8.5600 C.3       3 GLC5        0.0000 
     77 CA        -27.2260    9.6250   -8.7470 C.3       9 GLL5        0.0000 
     78 CA        -30.2930   12.4680   -8.3730 C.3       6 GLP5        0.0000 
     79 N         -25.7470    9.1590   -5.7640 N.am      2 SEC2        0.0000 
     80 N         -26.9280    9.4780   -6.2880 N.am      8 SEL2        0.0000 
     81 N         -24.5660    8.8400   -5.2400 N.am      5 SEP2        0.0000 
     82 CA        -29.3460   10.4455   -7.4230 C.3       3 GLC5        0.0000 
     83 CA        -27.8690    9.3430   -7.3690 C.3       9 GLL5        0.0000 
     84 CA        -30.8230   11.5480   -7.4770 C.3       6 GLP5        0.0000 
     85 CA        -38.1440    8.7502   -1.4475 C.3       3 GLC5        0.0000 
     86 CA        -39.9670   10.6148   -1.5093 C.3       3 GLC5        0.0000 
     87 CA        -40.3540    8.6750   -1.2290 C.3       9 GLL5        0.0000 
     88 CA        -39.3720   12.3240   -2.4620 C.3       6 GLP5        0.0000 
     89 CA        -41.2665    7.0054   -1.1460 C.3       3 GLC5        0.0000 
     90 CA        -38.4570    5.9987   -6.5187 C.3       3 GLC5        0.0000 
     91 CA        -38.8880    6.5090   -8.2450 C.3       6 GLP5        0.0000 
     92 CA        -36.0692    7.8057   -2.9603 C.3       3 GLC5        0.0000 
     93 CA        -34.4938    5.3068   -3.1528 C.3       3 GLC5        0.0000 
     94 CA        -33.2030    4.3970   -2.0100 C.3       6 GLP5        0.0000 
     95 CA        -30.3642    9.1617   -7.6330 C.3       3 GLC5        0.0000 
     96 CA        -29.8120    7.7460   -7.1560 C.3       9 GLL5        0.0000 
     97 CA        -31.6250   10.5130   -7.9440 C.3       6 GLP5        0.0000 
     98 CA        -28.1722    5.9328   -7.2680 C.3       3 GLC5        0.0000 
     99 CA        -27.2410    4.0550   -7.2140 C.3       6 GLP5        0.0000 
@<TRIPOS>BOND
@<TRIPOS>SUBSTRUCTURE
     1 ALC1       22 GROUP        1 X    ALC  0     ROOT ALC X 1
     2 SEC2        1 GROUP        1 X    SEC  0     **** SEC X 2
     3 GLC5        4 GROUP        1 X    GLC  0     **** GLC X 6
     4 ALP1       24 GROUP        1 Y    ALP  0     ROOT ALP Y 8
     5 SEP2        3 GROUP        1 Y    SEP  0     **** SEP Y 9
     6 GLP5        6 GROUP        1 Y    GLP  0     **** GLP Y 13
     7 ALL1       23 GROUP        1 Z    ALL  0     ROOT ALL Z 15
     8 SEL2        2 GROUP        1 Z    SEL  0     **** SEL Z 16
     9 GLL5        5 GROUP        1 Z    GLL  0     **** GLL Z 20
@<TRIPOS>SET

