#    Name: 1yc2_APR_4_ligand
#    Modification time : Tue Mar 25 10:56:36 2014

@<TRIPOS>MOLECULE
1yc2_APR_4_ligand
   57    60     1     0     0
SMALL
NO_CHARGES


@<TRIPOS>ATOM
      1 N1        -40.2710    8.3740    1.1660 N.ar      1 APR504      0.0000 
      2 C2        -39.4760    7.2980    1.0470 C.ar      1 APR504      0.0000 
      3 N3        -39.0540    6.8210   -0.1980 N.ar      1 APR504      0.0000 
      4 C4        -39.5140    7.5360   -1.3110 C.ar      1 APR504      0.0000 
      5 C5        -40.3540    8.6750   -1.2290 C.ar      1 APR504      0.0000 
      6 C6        -40.7700    9.1360    0.1160 C.ar      1 APR504      0.0000 
      7 N6        -41.5510   10.1860    0.3080 N.pl3     1 APR504      0.0000 
      8 N7        -40.6030    9.1130   -2.4760 N.2       1 APR504      0.0000 
      9 C8        -39.9600    8.3030   -3.3100 C.2       1 APR504      0.0000 
     10 N9        -39.2530    7.2860   -2.6640 N.pl3     1 APR504      0.0000 
     11 C1'       -38.4170    6.1810   -3.1280 C.3       1 APR504      0.0000 
     12 C2'       -38.6970    5.7860   -4.5910 C.3       1 APR504      0.0000 
     13 O2'       -39.8390    5.0200   -4.7940 O.3       1 APR504      0.0000 
     14 C3'       -37.3550    5.1910   -4.9940 C.3       1 APR504      0.0000 
     15 O3'       -37.3080    3.7350   -4.9300 O.3       1 APR504      0.0000 
     16 O4'       -37.0900    6.6460   -3.0890 O.3       1 APR504      0.0000 
     17 C4'       -36.3100    5.7760   -3.9930 C.3       1 APR504      0.0000 
     18 C5'       -35.2590    6.6570   -4.5980 C.3       1 APR504      0.0000 
     19 O5'       -34.4810    5.8210   -5.5080 O.3       1 APR504      0.0000 
     20 PA        -33.5900    6.4520   -6.6540 P.3       1 APR504      0.0000 
     21 O1A       -33.0330    5.3110   -7.4150 O.co2     1 APR504      0.0000 
     22 O2A       -34.3390    7.5180   -7.3740 O.co2     1 APR504      0.0000 
     23 O3A       -32.4280    7.1940   -5.8600 O.3       1 APR504      0.0000 
     24 PB        -31.0520    6.7010   -5.1230 P.3       1 APR504      0.0000 
     25 O1B       -31.2190    5.3640   -4.5360 O.co2     1 APR504      0.0000 
     26 O2B       -30.6400    7.8240   -4.2280 O.co2     1 APR504      0.0000 
     27 O5D       -30.0890    6.5520   -6.4020 O.3       1 APR504      0.0000 
     28 C5D       -29.8120    7.7460   -7.1560 C.3       1 APR504      0.0000 
     29 O4D       -28.2270    7.5200   -8.9210 O.3       1 APR504      0.0000 
     30 O1D       -27.4820    8.3850  -10.9120 O.3       1 APR504      0.0000 
     31 C1D       -28.1000    8.7240   -9.6950 C.3       1 APR504      0.0000 
     32 O2D       -25.8490    9.3410   -8.7770 O.3       1 APR504      0.0000 
     33 C2D       -27.2260    9.6250   -8.7470 C.3       1 APR504      0.0000 
     34 O3D       -26.9280    9.4780   -6.2880 O.3       1 APR504      0.0000 
     35 C3D       -27.8690    9.3430   -7.3690 C.3       1 APR504      0.0000 
     36 C4D       -28.3950    7.8750   -7.4880 C.3       1 APR504      0.0000 
     37 H         -39.1485    6.7829    1.9006 H         1 APR504      0.0000 
     38 H         -41.8892   10.6395   -0.5166 H         1 APR504      0.0000 
     39 H         -41.7324   10.4312    1.2604 H         1 APR504      0.0000 
     40 H         -39.9596    8.3826   -4.3009 H         1 APR504      0.0000 
     41 H         -38.5410    5.3202   -2.5149 H         1 APR504      0.0000 
     42 H         -38.7388    6.7723   -5.1241 H         1 APR504      0.0000 
     43 H         -37.0866    5.5604   -5.9650 H         1 APR504      0.0000 
     44 H         -35.8821    4.9872   -3.4344 H         1 APR504      0.0000 
     45 H         -34.6317    7.0571   -3.8110 H         1 APR504      0.0000 
     46 H         -35.7373    7.4678   -5.1335 H         1 APR504      0.0000 
     47 H         -30.1379    8.6432   -6.5852 H         1 APR504      0.0000 
     48 H         -30.4103    7.7540   -8.0935 H         1 APR504      0.0000 
     49 H         -29.0429    9.1908   -9.7911 H         1 APR504      0.0000 
     50 H         -27.4807   10.6450   -8.9943 H         1 APR504      0.0000 
     51 H         -28.7237    9.9743   -7.2726 H         1 APR504      0.0000 
     52 H         -27.7790    7.2516   -6.8960 H         1 APR504      0.0000 
     53 H         -39.5069    4.1549   -5.1698 H         1 APR504      0.0000 
     54 H         -36.7644    3.4586   -5.7226 H         1 APR504      0.0000 
     55 H         -26.5322    8.6813  -10.8112 H         1 APR504      0.0000 
     56 H         -25.6448    8.9552   -7.8773 H         1 APR504      0.0000 
     57 H         -26.9828   10.4387   -6.0158 H         1 APR504      0.0000 
@<TRIPOS>BOND
     1    2    1 ar   
     2    6    1 ar   
     3    3    2 ar   
     4   37    2 1    
     5    4    3 ar   
     6    5    4 ar   
     7   10    4 1    
     8    6    5 ar   
     9    8    5 1    
    10    7    6 1    
    11   38    7 1    
    12   39    7 1    
    13    9    8 2    
    14   10    9 1    
    15   40    9 1    
    16   11   10 1    
    17   12   11 1    
    18   16   11 1    
    19   41   11 1    
    20   13   12 1    
    21   14   12 1    
    22   42   12 1    
    23   53   13 1    
    24   15   14 1    
    25   17   14 1    
    26   43   14 1    
    27   54   15 1    
    28   17   16 1    
    29   18   17 1    
    30   44   17 1    
    31   19   18 1    
    32   45   18 1    
    33   46   18 1    
    34   20   19 1    
    35   21   20 ar   
    36   22   20 ar   
    37   23   20 1    
    38   24   23 1    
    39   25   24 ar   
    40   26   24 ar   
    41   27   24 1    
    42   28   27 1    
    43   36   28 1    
    44   47   28 1    
    45   48   28 1    
    46   31   29 1    
    47   36   29 1    
    48   31   30 1    
    49   55   30 1    
    50   33   31 1    
    51   49   31 1    
    52   33   32 1    
    53   56   32 1    
    54   35   33 1    
    55   50   33 1    
    56   35   34 1    
    57   57   34 1    
    58   36   35 1    
    59   51   35 1    
    60   52   36 1    
@<TRIPOS>SUBSTRUCTURE
     1 APR504      1 GROUP   
@<TRIPOS>SET

