#    Name: 3g6w_GTP_3_INTS_M
#    Modification time : Tue Mar 25 07:15:13 2014

@<TRIPOS>MOLECULE
3g6w_GTP_3_INTS_M
   60     0    12     0     0
SMALL
NO_CHARGES


@<TRIPOS>ATOM
      1 NZ        -13.5130    7.9690    8.7995 N.4       2 LYC4        0.0000 
      2 NZ        -12.7110    7.3270    9.8680 N.4      10 LYL4        0.0000 
      3 NZ        -14.0810    9.7850    7.1630 N.4       6 LYP4        0.0000 
      4 N         -13.5130    7.9690    8.7995 N.am      1 SEC2        0.0000 
      5 N         -12.7110    7.3270    9.8680 N.am      9 SEL2        0.0000 
      6 N         -14.3150    8.6110    7.7310 N.am      5 SEP2        0.0000 
      7 N         -11.6385    4.4815    9.5595 N.am      1 SEC2        0.0000 
      8 N         -11.6030    5.5020    8.4800 N.am      9 SEL2        0.0000 
      9 N         -11.6740    3.4610   10.6390 N.am      5 SEP2        0.0000 
     10 NZ         -9.8010    6.5660   11.1915 N.4       2 LYC4        0.0000 
     11 NZ        -10.3650    6.8590   10.0590 N.4      10 LYL4        0.0000 
     12 NZ         -9.2370    6.2730   12.3240 N.4       6 LYP4        0.0000 
     13 N          -9.8010    6.5660   11.1915 N.am      1 SEC2        0.0000 
     14 N         -10.3650    6.8590   10.0590 N.am      9 SEL2        0.0000 
     15 N          -9.2370    6.2730   12.3240 N.am      5 SEP2        0.0000 
     16 N         -12.7640    8.2450    7.8780 N.am      1 SEC2        0.0000 
     17 N         -11.2130    7.8790    8.0250 N.am      9 SEL2        0.0000 
     18 N         -12.0265    9.0625    7.5710 N.am      1 SEC2        0.0000 
     19 N         -12.8400   10.2460    7.1170 N.am      5 SEP2        0.0000 
     20 Zn         -7.9555    7.0175    7.8835 Zn        3 ZIC7        0.0000 
     21 Zn         -8.7480    7.6430    7.9410 Zn       11 ZIL7        0.0000 
     22 Zn         -7.1630    6.3920    7.8260 Zn        7 ZIP7        0.0000 
     23 NZ         -9.8275    9.6075    5.2420 N.4       2 LYC4        0.0000 
     24 NZ         -9.8120    9.4230    6.6470 N.4      10 LYL4        0.0000 
     25 NZ         -9.8430    9.7920    3.8370 N.4       6 LYP4        0.0000 
     26 N         -11.3260    9.8345    6.8820 N.am      1 SEC2        0.0000 
     27 N          -9.8120    9.4230    6.6470 N.am      9 SEL2        0.0000 
     28 N          -9.8275    9.6075    5.2420 N.am      1 SEC2        0.0000 
     29 N          -9.8430    9.7920    3.8370 N.am      5 SEP2        0.0000 
     30 N          -9.9735    8.4125    4.9050 N.am      1 SEC2        0.0000 
     31 N         -10.1040    7.0330    5.9730 N.am      9 SEL2        0.0000 
     32 NZ         -6.3520    5.9540    4.8615 N.4       2 LYC4        0.0000 
     33 NZ         -7.7380    6.2130    5.8610 N.4      10 LYL4        0.0000 
     34 NZ         -4.9660    5.6950    3.8620 N.4       6 LYP4        0.0000 
     35 Zn         -7.4505    6.3025    6.8435 Zn        3 ZIC7        0.0000 
     36 Zn         -7.7380    6.2130    5.8610 Zn       11 ZIL7        0.0000 
     37 NZ         -9.4960    8.1175    3.8085 N.4       2 LYC4        0.0000 
     38 NZ         -9.1490    6.4430    3.7800 N.4      10 LYL4        0.0000 
     39 CA        -12.7090    5.3255    4.4445 C.3       4 GLC5        0.0000 
     40 CA        -11.1150    4.3160    5.2580 C.3      12 GLL5        0.0000 
     41 CA        -14.3030    6.3350    3.6310 C.3       8 GLP5        0.0000 
     42 CA        -12.0290    1.6675    4.2765 C.3       4 GLC5        0.0000 
     43 CA        -11.3700    2.8530    5.4570 C.3      12 GLL5        0.0000 
     44 CA        -12.6880    0.4820    3.0960 C.3       8 GLP5        0.0000 
     45 CA        -11.3150    0.7430    4.5205 C.3       4 GLC5        0.0000 
     46 CA         -9.9420    1.0040    5.9450 C.3      12 GLL5        0.0000 
     47 CA         -5.4985    1.8265    5.0920 C.3       4 GLC5        0.0000 
     48 CA         -6.3750    0.8840    6.7660 C.3      12 GLL5        0.0000 
     49 CA         -4.6220    2.7690    3.4180 C.3       8 GLP5        0.0000 
     50 N          -3.0290    0.8525    6.2190 N.am      1 SEC2        0.0000 
     51 N          -4.0070    0.4610    7.1960 N.am      9 SEL2        0.0000 
     52 N          -2.0510    1.2440    5.2420 N.am      5 SEP2        0.0000 
     53 CA         -7.7840   -0.7400    4.7160 C.3       4 GLC5        0.0000 
     54 CA         -7.5850    0.2170    6.5220 C.3      12 GLL5        0.0000 
     55 CA         -7.9830   -1.6970    2.9100 C.3       8 GLP5        0.0000 
     56 CA        -12.5408    0.9803    5.5068 C.3       4 GLC5        0.0000 
     57 CA        -10.9130    1.1170    7.0650 C.3      12 GLL5        0.0000 
     58 CA        -13.8000    0.1850    4.0270 C.3       8 GLP5        0.0000 
     59 CA         -7.0910    0.8588    8.4400 C.3       4 GLC5        0.0000 
     60 CA         -7.2020    1.1670   10.2360 C.3       8 GLP5        0.0000 
@<TRIPOS>BOND
@<TRIPOS>SUBSTRUCTURE
     1 SEC2        4 GROUP        1 X    SEC  0     ROOT SEC X 2
     2 LYC4        1 GROUP        1 X    LYC  0     **** LYC X 4
     3 ZIC7       20 GROUP        1 X    ZIC  0     **** ZIC X 5
     4 GLC5       39 GROUP        1 X    GLC  0     **** GLC X 6
     5 SEP2        6 GROUP        1 Y    SEP  0     ROOT SEP Y 9
     6 LYP4        3 GROUP        1 Y    LYP  0     **** LYP Y 11
     7 ZIP7       22 GROUP        1 Y    ZIP  0     **** ZIP Y 12
     8 GLP5       41 GROUP        1 Y    GLP  0     **** GLP Y 13
     9 SEL2        5 GROUP        1 Z    SEL  0     ROOT SEL Z 16
    10 LYL4        2 GROUP        1 Z    LYL  0     **** LYL Z 18
    11 ZIL7       21 GROUP        1 Z    ZIL  0     **** ZIL Z 19
    12 GLL5       40 GROUP        1 Z    GLL  0     **** GLL Z 20
@<TRIPOS>SET

