#    Name: 3g6w_GTP_3_ligand
#    Modification time : Tue Mar 25 07:15:13 2014

@<TRIPOS>MOLECULE
3g6w_GTP_3_ligand
   44    46     1     0     0
SMALL
NO_CHARGES


@<TRIPOS>ATOM
      1 PG        -11.4970    6.8490    9.1250 P.3       1 GTP301      0.0000 
      2 O1G       -12.7110    7.3270    9.8680 O.co2     1 GTP301      0.0000 
      3 O2G       -11.6030    5.5020    8.4800 O.co2     1 GTP301      0.0000 
      4 O3G       -10.3650    6.8590   10.0590 O.co2     1 GTP301      0.0000 
      5 O3B       -11.2130    7.8790    8.0250 O.3       1 GTP301      0.0000 
      6 PB         -9.9190    8.0290    7.1390 P.3       1 GTP301      0.0000 
      7 O1B        -8.7480    7.6430    7.9410 O.co2     1 GTP301      0.0000 
      8 O2B        -9.8120    9.4230    6.6470 O.co2     1 GTP301      0.0000 
      9 O3A       -10.1040    7.0330    5.9730 O.3       1 GTP301      0.0000 
     10 PA         -9.0960    6.0650    5.2200 P.3       1 GTP301      0.0000 
     11 O1A        -7.7380    6.2130    5.8610 O.co2     1 GTP301      0.0000 
     12 O2A        -9.1490    6.4430    3.7800 O.co2     1 GTP301      0.0000 
     13 O5'        -9.7550    4.6330    5.5180 O.3       1 GTP301      0.0000 
     14 C5'       -11.1150    4.3160    5.2580 C.3       1 GTP301      0.0000 
     15 C4'       -11.3700    2.8530    5.4570 C.3       1 GTP301      0.0000 
     16 O4'       -10.2450    2.0460    5.0160 O.3       1 GTP301      0.0000 
     17 C3'       -11.6500    2.4340    6.9080 C.3       1 GTP301      0.0000 
     18 O3'       -13.0600    2.3810    7.1800 O.3       1 GTP301      0.0000 
     19 C2'       -10.9130    1.1170    7.0650 C.3       1 GTP301      0.0000 
     20 O2'       -11.8250   -0.0160    7.0440 O.3       1 GTP301      0.0000 
     21 C1'        -9.9420    1.0040    5.9450 C.3       1 GTP301      0.0000 
     22 N9         -8.5120    1.1900    6.3050 N.pl3     1 GTP301      0.0000 
     23 C8         -7.8220    2.3840    6.4800 C.2       1 GTP301      0.0000 
     24 N7         -6.5650    2.2500    6.7570 N.2       1 GTP301      0.0000 
     25 C5         -6.3750    0.8840    6.7660 C.2       1 GTP301      0.0000 
     26 C6         -5.1650    0.0860    6.9820 C.2       1 GTP301      0.0000 
     27 O6         -4.0070    0.4610    7.1960 O.2       1 GTP301      0.0000 
     28 N1         -5.4350   -1.3310    6.9260 N.am      1 GTP301      0.0000 
     29 C2         -6.6980   -1.8880    6.6850 C.2       1 GTP301      0.0000 
     30 N2         -6.7590   -3.2160    6.6450 N.pl3     1 GTP301      0.0000 
     31 N3         -7.8060   -1.1580    6.4890 N.2       1 GTP301      0.0000 
     32 C4         -7.5850    0.2170    6.5220 C.2       1 GTP301      0.0000 
     33 H         -11.3983    4.5783    4.2229 H         1 GTP301      0.0000 
     34 H         -11.7935    4.8786    5.9240 H         1 GTP301      0.0000 
     35 H         -12.2537    2.5573    4.8701 H         1 GTP301      0.0000 
     36 H         -11.1400    3.1680    7.5344 H         1 GTP301      0.0000 
     37 H         -10.3635    1.1482    7.9954 H         1 GTP301      0.0000 
     38 H         -10.0650    0.0485    5.4505 H         1 GTP301      0.0000 
     39 H          -8.3093    3.2650    6.3876 H         1 GTP301      0.0000 
     40 H          -4.6189   -1.9737    7.0783 H         1 GTP301      0.0000 
     41 H          -5.8965   -3.7007    6.7905 H         1 GTP301      0.0000 
     42 H          -7.6619   -3.6100    6.4730 H         1 GTP301      0.0000 
     43 H         -13.2526    1.4164    7.3602 H         1 GTP301      0.0000 
     44 H         -11.4503   -0.6621    7.7090 H         1 GTP301      0.0000 
@<TRIPOS>BOND
     1    2    1 ar   
     2    3    1 ar   
     3    4    1 ar   
     4    5    1 1    
     5    6    5 1    
     6    7    6 ar   
     7    8    6 ar   
     8    9    6 1    
     9   10    9 1    
    10   11   10 ar   
    11   12   10 ar   
    12   13   10 1    
    13   14   13 1    
    14   15   14 1    
    15   33   14 1    
    16   34   14 1    
    17   16   15 1    
    18   17   15 1    
    19   35   15 1    
    20   21   16 1    
    21   18   17 1    
    22   19   17 1    
    23   36   17 1    
    24   43   18 1    
    25   20   19 1    
    26   21   19 1    
    27   37   19 1    
    28   44   20 1    
    29   22   21 1    
    30   38   21 1    
    31   23   22 1    
    32   32   22 1    
    33   24   23 2    
    34   39   23 1    
    35   25   24 1    
    36   26   25 1    
    37   32   25 2    
    38   27   26 2    
    39   28   26 am   
    40   29   28 1    
    41   40   28 1    
    42   30   29 1    
    43   31   29 2    
    44   41   30 1    
    45   42   30 1    
    46   32   31 1    
@<TRIPOS>SUBSTRUCTURE
     1 GTP301      1 GROUP   
@<TRIPOS>SET

