#    Name: 3w2l_VRO_2_INTS_M
#    Modification time : Tue Mar 25 02:04:54 2014

@<TRIPOS>MOLECULE
3w2l_VRO_2_INTS_M
   53     0    12     0     0
SMALL
NO_CHARGES


@<TRIPOS>ATOM
      1 NZ         -7.4610  -16.0985   14.7895 N.4       3 LYC4        0.0000 
      2 NZ         -6.1310  -15.7990   14.1850 N.4      11 LYL4        0.0000 
      3 NZ         -8.7910  -16.3980   15.3940 N.4       7 LYP4        0.0000 
      4 N          -7.4610  -16.0985   14.7895 N.am      2 SEC2        0.0000 
      5 N          -6.1310  -15.7990   14.1850 N.am     10 SEL2        0.0000 
      6 N          -8.7910  -16.3980   15.3940 N.am      6 SEP2        0.0000 
      7 N          -5.7725  -16.9915   13.4830 N.am      2 SEC2        0.0000 
      8 N          -5.4140  -18.1840   12.7810 N.am      6 SEP2        0.0000 
      9 N          -3.5525  -16.2820   14.2770 N.am      2 SEC2        0.0000 
     10 N          -4.0980  -14.9080   14.3820 N.am     10 SEL2        0.0000 
     11 N          -3.0070  -17.6560   14.1720 N.am      6 SEP2        0.0000 
     12 CA         -7.0945  -13.2395   15.8845 C.3       4 GLC5        0.0000 
     13 CA         -5.8860  -13.4620   14.1660 C.3      12 GLL5        0.0000 
     14 CA         -8.3030  -13.0170   17.6030 C.3       8 GLP5        0.0000 
     15 O          -4.4985  -12.9615   16.2395 O.2       1 ALC1        0.0000 
     16 O          -5.4180  -12.5910   15.1790 O.2       9 ALL1        0.0000 
     17 O          -3.5790  -13.3320   17.3000 O.2       5 ALP1        0.0000 
     18 N          -4.6765  -10.9625   17.2460 N.am      2 SEC2        0.0000 
     19 N          -5.3490  -10.4550   16.0350 N.am     10 SEL2        0.0000 
     20 N          -4.0040  -11.4700   18.4570 N.am      6 SEP2        0.0000 
     21 N          -4.7760   -9.2325   15.8810 N.am      2 SEC2        0.0000 
     22 N          -4.2030   -8.0100   15.7270 N.am      6 SEP2        0.0000 
     23 O          -6.9800   -9.4740   14.1870 O.2       1 ALC1        0.0000 
     24 O          -6.6280  -10.8170   14.2170 O.2       9 ALL1        0.0000 
     25 O          -7.3320   -8.1310   14.1570 O.2       5 ALP1        0.0000 
     26 N          -9.0070  -11.3730   11.4550 N.am      2 SEC2        0.0000 
     27 N          -7.8870  -11.1220   12.3850 N.am     10 SEL2        0.0000 
     28 N         -10.1270  -11.6240   10.5250 N.am      6 SEP2        0.0000 
     29 N          -8.2230   -9.7075   12.3415 N.am      2 SEC2        0.0000 
     30 N          -8.5590   -8.2930   12.2980 N.am      6 SEP2        0.0000 
     31 CA         -5.6860  -16.3410   10.8530 C.3       4 GLC5        0.0000 
     32 CA         -4.5240  -14.6060   10.8570 C.3      12 GLL5        0.0000 
     33 CA         -6.8480  -18.0760   10.8490 C.3       8 GLP5        0.0000 
     34 CA         -3.0575  -16.4745   11.9025 C.3       4 GLC5        0.0000 
     35 CA         -3.1040  -14.5460   10.8890 C.3      12 GLL5        0.0000 
     36 CA         -3.0110  -18.4030   12.9160 C.3       8 GLP5        0.0000 
     37 CA         -1.3105  -13.2755    8.6385 C.3       4 GLC5        0.0000 
     38 CA         -0.6780  -11.8060    9.9420 C.3      12 GLL5        0.0000 
     39 CA         -1.9430  -14.7450    7.3350 C.3       8 GLP5        0.0000 
     40 CA         -5.6690  -10.5865    9.8615 C.3       4 GLC5        0.0000 
     41 CA         -4.7590  -12.2440   10.5640 C.3      12 GLL5        0.0000 
     42 CA         -6.5790   -8.9290    9.1590 C.3       8 GLP5        0.0000 
     43 CA         -8.0380  -15.3335   11.1425 C.3       4 GLC5        0.0000 
     44 CA         -6.7400  -13.4860   10.7680 C.3      12 GLL5        0.0000 
     45 CA         -9.0890  -16.9820   10.8510 C.3       8 GLP5        0.0000 
     46 CA         -5.6108  -13.0945    8.7508 C.3       4 GLC5        0.0000 
     47 CA         -5.1680  -12.7010    6.7450 C.3       8 GLP5        0.0000 
     48 CA         -4.6057  -14.8185    9.0715 C.3       4 GLC5        0.0000 
     49 CA         -5.3670  -13.4900   10.7450 C.3      12 GLL5        0.0000 
     50 CA         -4.2660  -15.5890    7.3420 C.3       8 GLP5        0.0000 
     51 CA         -4.6178  -12.4573    8.6480 C.3       4 GLC5        0.0000 
     52 CA         -3.3760  -12.1830   10.5380 C.3      12 GLL5        0.0000 
     53 CA         -2.5198  -13.8957    9.0054 C.3       4 GLC5        0.0000 
@<TRIPOS>BOND
@<TRIPOS>SUBSTRUCTURE
     1 ALC1       15 GROUP        1 X    ALC  0     ROOT ALC X 1
     2 SEC2        4 GROUP        1 X    SEC  0     **** SEC X 2
     3 LYC4        1 GROUP        1 X    LYC  0     **** LYC X 4
     4 GLC5       12 GROUP        1 X    GLC  0     **** GLC X 6
     5 ALP1       17 GROUP        1 Y    ALP  0     ROOT ALP Y 8
     6 SEP2        6 GROUP        1 Y    SEP  0     **** SEP Y 9
     7 LYP4        3 GROUP        1 Y    LYP  0     **** LYP Y 11
     8 GLP5       14 GROUP        1 Y    GLP  0     **** GLP Y 13
     9 ALL1       16 GROUP        1 Z    ALL  0     ROOT ALL Z 15
    10 SEL2        5 GROUP        1 Z    SEL  0     **** SEL Z 16
    11 LYL4        2 GROUP        1 Z    LYL  0     **** LYL Z 18
    12 GLL5       13 GROUP        1 Z    GLL  0     **** GLL Z 20
@<TRIPOS>SET

