#    Name: 3w2l_VRO_2_ligand
#    Modification time : Tue Mar 25 02:04:54 2014

@<TRIPOS>MOLECULE
3w2l_VRO_2_ligand
   34    35     1     0     0
SMALL
NO_CHARGES


@<TRIPOS>ATOM
      1 OAB        -6.1310  -15.7990   14.1850 O.co2     1 VRO401      0.0000 
      2 CAO        -5.3330  -14.8220   14.2390 C.2       1 VRO401      0.0000 
      3 OAE        -4.0980  -14.9080   14.3820 O.co2     1 VRO401      0.0000 
      4 CAR        -5.8860  -13.4620   14.1660 C.2       1 VRO401      0.0000 
      5 NAL        -5.4180  -12.5910   15.1790 N.am      1 VRO401      0.0000 
      6 CAT        -5.8270  -11.2840   15.1980 C.2       1 VRO401      0.0000 
      7 OAC        -5.3490  -10.4550   16.0350 O.2       1 VRO401      0.0000 
      8 NAM        -6.6280  -10.8170   14.2170 N.am      1 VRO401      0.0000 
      9 CAU        -7.1790  -11.6550   13.2230 C.2       1 VRO401      0.0000 
     10 OAD        -7.8870  -11.1220   12.3850 O.2       1 VRO401      0.0000 
     11 CAS        -6.7270  -12.9940   13.1880 C.2       1 VRO401      0.0000 
     12 CAK        -7.2340  -13.8840   12.1000 C.3       1 VRO401      0.0000 
     13 CAJ        -6.7400  -13.4860   10.7680 C.3       1 VRO401      0.0000 
     14 CAP        -5.3670  -13.4900   10.7450 C.ar      1 VRO401      0.0000 
     15 CAF        -4.5240  -14.6060   10.8570 C.ar      1 VRO401      0.0000 
     16 CAH        -3.1040  -14.5460   10.8890 C.ar      1 VRO401      0.0000 
     17 CAQ        -2.5300  -13.2740   10.7380 C.ar      1 VRO401      0.0000 
     18 OAN        -1.1550  -13.0420   10.6450 O.3       1 VRO401      0.0000 
     19 CAA        -0.6780  -11.8060    9.9420 C.3       1 VRO401      0.0000 
     20 CAI        -3.3760  -12.1830   10.5380 C.ar      1 VRO401      0.0000 
     21 CAG        -4.7590  -12.2440   10.5640 C.ar      1 VRO401      0.0000 
     22 H          -4.7734  -12.9582   15.8892 H         1 VRO401      0.0000 
     23 H          -6.8660   -9.7959   14.1684 H         1 VRO401      0.0000 
     24 H          -8.3394  -13.8698   12.1086 H         1 VRO401      0.0000 
     25 H          -6.9310  -14.9251   12.3156 H         1 VRO401      0.0000 
     26 H          -7.1604  -12.4853   10.5299 H         1 VRO401      0.0000 
     27 H          -7.1740  -14.1817   10.0180 H         1 VRO401      0.0000 
     28 H          -4.9681  -15.5601   10.9225 H         1 VRO401      0.0000 
     29 H          -2.5542  -15.3666   11.0123 H         1 VRO401      0.0000 
     30 H          -2.9233  -11.2409   10.3530 H         1 VRO401      0.0000 
     31 H          -5.3248  -11.4060   10.4546 H         1 VRO401      0.0000 
     32 H           0.3200  -11.7424    9.9387 H         1 VRO401      0.0000 
     33 H          -0.9763  -11.7829    8.9878 H         1 VRO401      0.0000 
     34 H          -1.0233  -10.9745   10.3772 H         1 VRO401      0.0000 
@<TRIPOS>BOND
     1    2    1 ar   
     2    3    2 ar   
     3    4    2 1    
     4    5    4 1    
     5   11    4 2    
     6    6    5 am   
     7   22    5 1    
     8    7    6 2    
     9    8    6 am   
    10    9    8 am   
    11   23    8 1    
    12   10    9 2    
    13   11    9 1    
    14   12   11 1    
    15   13   12 1    
    16   24   12 1    
    17   25   12 1    
    18   14   13 1    
    19   26   13 1    
    20   27   13 1    
    21   15   14 ar   
    22   21   14 ar   
    23   16   15 ar   
    24   28   15 1    
    25   17   16 ar   
    26   29   16 1    
    27   18   17 1    
    28   20   17 ar   
    29   19   18 1    
    30   32   19 1    
    31   33   19 1    
    32   34   19 1    
    33   21   20 ar   
    34   30   20 1    
    35   31   21 1    
@<TRIPOS>SUBSTRUCTURE
     1 VRO401      1 GROUP   
@<TRIPOS>SET

