#    Name: 3mdt_VOR_2_INTS_M
#    Modification time : Mon Mar 24 23:02:52 2014

@<TRIPOS>MOLECULE
3mdt_VOR_2_INTS_M
   49     0     3     0     0
SMALL
NO_CHARGES


@<TRIPOS>ATOM
      1 CA         32.3980  -66.4085  -62.6530 C.3       1 GLC5        0.0000 
      2 CA         31.8490  -64.8340  -62.1610 C.3       3 GLL5        0.0000 
      3 CA         32.9470  -67.9830  -63.1450 C.3       2 GLP5        0.0000 
      4 CA         27.9200  -63.4725  -64.9120 C.3       1 GLC5        0.0000 
      5 CA         29.1050  -62.0350  -64.3900 C.3       3 GLL5        0.0000 
      6 CA         26.7350  -64.9100  -65.4340 C.3       2 GLP5        0.0000 
      7 CA         25.8760  -66.2190  -62.3990 C.3       1 GLC5        0.0000 
      8 CA         27.8350  -67.1690  -62.9330 C.3       3 GLL5        0.0000 
      9 CA         23.9170  -65.2690  -61.8650 C.3       2 GLP5        0.0000 
     10 CA         27.3665  -67.2660  -64.4600 C.3       1 GLC5        0.0000 
     11 CA         26.8980  -67.3630  -65.9870 C.3       2 GLP5        0.0000 
     12 CA         29.5130  -68.3045  -63.3815 C.3       1 GLC5        0.0000 
     13 CA         31.1910  -69.4400  -63.8300 C.3       2 GLP5        0.0000 
     14 CA         27.1660  -68.5930  -62.1730 C.3       1 GLC5        0.0000 
     15 CA         26.4970  -70.0170  -61.4130 C.3       2 GLP5        0.0000 
     16 CA         33.1865  -63.7850  -59.5370 C.3       1 GLC5        0.0000 
     17 CA         31.6990  -62.7560  -60.4680 C.3       3 GLL5        0.0000 
     18 CA         34.6740  -64.8140  -58.6060 C.3       2 GLP5        0.0000 
     19 CA         33.0260  -59.2100  -61.1430 C.3       1 GLC5        0.0000 
     20 CA         31.3740  -59.9900  -61.7810 C.3       3 GLL5        0.0000 
     21 CA         34.6780  -58.4300  -60.5050 C.3       2 GLP5        0.0000 
     22 CA         30.7825  -58.5020  -60.8280 C.3       1 GLC5        0.0000 
     23 CA         30.1910  -57.0140  -59.8750 C.3       2 GLP5        0.0000 
     24 CA         29.7930  -64.3305  -66.2250 C.3       1 GLC5        0.0000 
     25 CA         30.9330  -62.9070  -65.6410 C.3       3 GLL5        0.0000 
     26 CA         28.6530  -65.7540  -66.8090 C.3       2 GLP5        0.0000 
     27 CA         30.7815  -63.2195  -67.4180 C.3       1 GLC5        0.0000 
     28 CA         30.6300  -63.5320  -69.1950 C.3       2 GLP5        0.0000 
     29 CA         32.0920  -61.8555  -66.9575 C.3       1 GLC5        0.0000 
     30 CA         33.2510  -60.8040  -68.2740 C.3       2 GLP5        0.0000 
     31 CA         34.7505  -62.8440  -66.0770 C.3       1 GLC5        0.0000 
     32 CA         33.1570  -62.7900  -64.7420 C.3       3 GLL5        0.0000 
     33 CA         36.3440  -62.8980  -67.4120 C.3       2 GLP5        0.0000 
     34 CA         34.7715  -63.9070  -64.3195 C.3       1 GLC5        0.0000 
     35 CA         36.3860  -65.0240  -63.8970 C.3       2 GLP5        0.0000 
     36 CA         33.2040  -61.7970  -66.5080 C.3       1 GLC5        0.0000 
     37 CA         33.3035  -60.6760  -64.4185 C.3       1 GLC5        0.0000 
     38 CA         33.4500  -58.5620  -64.0950 C.3       2 GLP5        0.0000 
     39 CA         32.3176  -59.9085  -63.4100 C.3       1 GLC5        0.0000 
     40 CA         31.3170  -61.8820  -63.4480 C.3       3 GLL5        0.0000 
     41 CA         27.3760  -64.6265  -63.6642 C.3       1 GLC5        0.0000 
     42 CA         28.3580  -63.7490  -61.6820 C.3       3 GLL5        0.0000 
     43 CA         27.9405  -65.4652  -63.9825 C.3       1 GLC5        0.0000 
     44 CA         28.4310  -66.0660  -62.5330 C.3       3 GLL5        0.0000 
     45 CA         28.9220  -66.2053  -60.3985 C.3       1 GLC5        0.0000 
     46 CA         28.6980  -66.3900  -58.2660 C.3       2 GLP5        0.0000 
     47 CA         28.3077  -64.6364  -59.9582 C.3       1 GLC5        0.0000 
     48 CA         27.6760  -64.9370  -62.1070 C.3       3 GLL5        0.0000 
     49 CA         28.2420  -64.9600  -58.0240 C.3       2 GLP5        0.0000 
@<TRIPOS>BOND
@<TRIPOS>SUBSTRUCTURE
     1 GLC5        1 GROUP        1 X    GLC  0     ROOT GLC X 6
     2 GLP5        3 GROUP        1 Y    GLP  0     ROOT GLP Y 13
     3 GLL5        2 GROUP        1 Z    GLL  0     ROOT GLL Z 20
@<TRIPOS>SET

