#    Name: 3mdt_VOR_2_ligand
#    Modification time : Mon Mar 24 23:02:52 2014

@<TRIPOS>MOLECULE
3mdt_VOR_2_ligand
   39    41     1     0     0
SMALL
NO_CHARGES


@<TRIPOS>ATOM
      1 F1         31.8490  -64.8340  -62.1610 F         1 VOR506      0.0000 
      2 F2         29.1050  -62.0350  -64.3900 F         1 VOR506      0.0000 
      3 F3         27.8350  -67.1690  -62.9330 F         1 VOR506      0.0000 
      4 O4         29.4840  -61.7890  -60.2780 O.3       1 VOR506      0.0000 
      5 N5         32.3860  -62.1270  -59.4430 N.pl3     1 VOR506      0.0000 
      6 N6         32.6530  -62.1610  -63.6000 N.ar      1 VOR506      0.0000 
      7 N7         33.7080  -61.8110  -59.4800 N.2       1 VOR506      0.0000 
      8 N8         32.9420  -61.2220  -57.4430 N.2       1 VOR506      0.0000 
      9 N9         32.2970  -63.1580  -65.7580 N.ar      1 VOR506      0.0000 
     10 C10        30.4750  -62.3380  -61.1750 C.3       1 VOR506      0.0000 
     11 C11        30.7330  -61.2660  -62.2230 C.3       1 VOR506      0.0000 
     12 C12        31.6990  -62.7560  -60.4680 C.3       1 VOR506      0.0000 
     13 C13        29.7840  -63.6280  -61.6740 C.ar      1 VOR506      0.0000 
     14 C14        31.3740  -59.9900  -61.7810 C.3       1 VOR506      0.0000 
     15 C15        31.3170  -61.8820  -63.4480 C.ar      1 VOR506      0.0000 
     16 C16        30.5280  -64.7810  -62.1200 C.ar      1 VOR506      0.0000 
     17 C17        28.3580  -63.7490  -61.6820 C.ar      1 VOR506      0.0000 
     18 C18        30.3970  -62.2640  -64.4840 C.ar      1 VOR506      0.0000 
     19 C19        29.8610  -65.9750  -62.5290 C.ar      1 VOR506      0.0000 
     20 C20        27.6760  -64.9370  -62.1070 C.ar      1 VOR506      0.0000 
     21 C21        31.8990  -61.7940  -58.1750 C.2       1 VOR506      0.0000 
     22 C22        28.4310  -66.0660  -62.5330 C.ar      1 VOR506      0.0000 
     23 C23        30.9330  -62.9070  -65.6410 C.ar      1 VOR506      0.0000 
     24 C24        33.1570  -62.7900  -64.7420 C.ar      1 VOR506      0.0000 
     25 C25        34.0780  -61.2360  -58.2630 C.2       1 VOR506      0.0000 
     26 H          29.6486  -60.9614  -62.5656 H         1 VOR506      0.0000 
     27 H          31.4975  -63.8911  -60.1426 H         1 VOR506      0.0000 
     28 H          32.4818  -63.0244  -61.3342 H         1 VOR506      0.0000 
     29 H          27.7905  -62.9412  -61.3662 H         1 VOR506      0.0000 
     30 H          30.4141  -66.7849  -62.8262 H         1 VOR506      0.0000 
     31 H          26.6641  -64.9676  -62.1023 H         1 VOR506      0.0000 
     32 H          31.0157  -61.9326  -57.8673 H         1 VOR506      0.0000 
     33 H          30.2861  -63.1837  -66.3933 H         1 VOR506      0.0000 
     34 H          34.1645  -62.9745  -64.8181 H         1 VOR506      0.0000 
     35 H          34.9314  -60.9161  -58.0330 H         1 VOR506      0.0000 
     36 H          32.2769  -60.1471  -61.3810 H         1 VOR506      0.0000 
     37 H          31.4974  -59.3532  -62.5421 H         1 VOR506      0.0000 
     38 H          30.8255  -59.5186  -61.0904 H         1 VOR506      0.0000 
     39 H          28.7313  -61.5001  -60.8696 H         1 VOR506      0.0000 
@<TRIPOS>BOND
     1   16    1 1    
     2   18    2 1    
     3   22    3 1    
     4   10    4 1    
     5   39    4 1    
     6    7    5 1    
     7   12    5 1    
     8   21    5 1    
     9   15    6 ar   
    10   24    6 ar   
    11   25    7 2    
    12   21    8 2    
    13   25    8 1    
    14   23    9 ar   
    15   24    9 ar   
    16   11   10 1    
    17   12   10 1    
    18   13   10 1    
    19   14   11 1    
    20   15   11 1    
    21   26   11 1    
    22   27   12 1    
    23   28   12 1    
    24   16   13 ar   
    25   17   13 ar   
    26   36   14 1    
    27   37   14 1    
    28   38   14 1    
    29   18   15 ar   
    30   19   16 ar   
    31   20   17 ar   
    32   29   17 1    
    33   23   18 ar   
    34   22   19 ar   
    35   30   19 1    
    36   22   20 ar   
    37   31   20 1    
    38   32   21 1    
    39   33   23 1    
    40   34   24 1    
    41   35   25 1    
@<TRIPOS>SUBSTRUCTURE
     1 VOR506      1 GROUP   
@<TRIPOS>SET

