#    Name: 2oox_AMP_2_INTS_M
#    Modification time : Mon Mar 24 17:44:07 2014

@<TRIPOS>MOLECULE
2oox_AMP_2_INTS_M
   64     0    12     0     0
SMALL
NO_CHARGES


@<TRIPOS>ATOM
      1 N          52.0385   -9.3395  -21.5885 N.am      2 SEC2        0.0000 
      2 N          51.3010   -9.2600  -20.0690 N.am     10 SEL2        0.0000 
      3 N          52.7760   -9.4190  -23.1080 N.am      6 SEP2        0.0000 
      4 NZ         50.1795   -5.8065  -19.2350 N.4       3 LYC4        0.0000 
      5 NZ         50.5190   -7.0390  -19.1030 N.4      11 LYL4        0.0000 
      6 NZ         48.6600   -4.5700  -19.9930 N.4       7 LYP4        0.0000 
      7 N          50.1795   -5.8065  -19.2350 N.am      2 SEC2        0.0000 
      8 N          50.5190   -7.0390  -19.1030 N.am     10 SEL2        0.0000 
      9 N          49.8400   -4.5740  -19.3670 N.am      6 SEP2        0.0000 
     10 N          50.1980   -6.8810  -17.7145 N.am      2 SEC2        0.0000 
     11 N          49.8770   -6.7230  -16.3260 N.am      6 SEP2        0.0000 
     12 N          49.5405   -7.5415  -18.6425 N.am      2 SEC2        0.0000 
     13 N          48.5620   -8.0440  -18.1820 N.am      6 SEP2        0.0000 
     14 NZ         49.4600   -6.4525  -21.3015 N.4       3 LYC4        0.0000 
     15 NZ         50.4970   -7.5010  -21.5990 N.4      11 LYL4        0.0000 
     16 N          50.8315   -6.2805  -22.7185 N.am      2 SEC2        0.0000 
     17 N          50.4970   -7.5010  -21.5990 N.am     10 SEL2        0.0000 
     18 N          51.1660   -5.0600  -23.8380 N.am      6 SEP2        0.0000 
     19 N          49.4600   -6.4525  -21.3015 N.am      2 SEC2        0.0000 
     20 N          48.4230   -5.4040  -21.0040 N.am      6 SEP2        0.0000 
     21 N          51.6365   -8.4600  -22.3535 N.am      2 SEC2        0.0000 
     22 O          56.6565   -7.2795  -24.0665 O.2       1 ALC1        0.0000 
     23 O          56.3100   -6.7230  -22.9560 O.2       9 ALL1        0.0000 
     24 O          57.0030   -7.8360  -25.1770 O.2       5 ALP1        0.0000 
     25 O          56.5275   -8.1955  -23.4860 O.2       1 ALC1        0.0000 
     26 O          56.7450   -9.6680  -24.0160 O.2       5 ALP1        0.0000 
     27 N          58.1735   -8.5075  -21.0475 N.am      2 SEC2        0.0000 
     28 N          56.8800   -8.9030  -21.3380 N.am     10 SEL2        0.0000 
     29 N          59.4670   -8.1120  -20.7570 N.am      6 SEP2        0.0000 
     30 O          56.8125   -9.2855  -22.6770 O.2       1 ALC1        0.0000 
     31 O          56.8800   -8.9030  -21.3380 O.2       9 ALL1        0.0000 
     32 CA         58.1535   -8.0990  -19.8965 C.3       4 GLC5        0.0000 
     33 CA         56.1740   -7.1450  -19.8790 C.3      12 GLL5        0.0000 
     34 CA         60.1330   -9.0530  -19.9140 C.3       8 GLP5        0.0000 
     35 CA         55.1400   -6.3265  -18.2445 C.3       4 GLC5        0.0000 
     36 CA         54.1060   -5.5080  -16.6100 C.3       8 GLP5        0.0000 
     37 CA         55.2425   -7.8325  -14.4905 C.3       4 GLC5        0.0000 
     38 CA         56.3450   -9.0370  -15.2900 C.3      12 GLL5        0.0000 
     39 CA         54.1400   -6.6280  -13.6910 C.3       8 GLP5        0.0000 
     40 O          56.2610   -9.9430  -12.8055 O.2       1 ALC1        0.0000 
     41 O          55.7170   -9.7450  -14.3390 O.2       9 ALL1        0.0000 
     42 O          56.8050  -10.1410  -11.2720 O.2       5 ALP1        0.0000 
     43 O          54.1365   -9.7910  -14.1535 O.2       1 ALC1        0.0000 
     44 O          52.5560   -9.8370  -13.9680 O.2       5 ALP1        0.0000 
     45 N          58.3015   -8.4730  -13.6230 N.am      2 SEC2        0.0000 
     46 N          57.5640   -8.5140  -15.0670 N.am     10 SEL2        0.0000 
     47 N          59.0390   -8.4320  -12.1790 N.am      6 SEP2        0.0000 
     48 CA         59.6065   -8.0500  -17.4515 C.3       4 GLC5        0.0000 
     49 CA         58.1940   -7.7750  -16.0070 C.3      12 GLL5        0.0000 
     50 CA         61.0190   -8.3250  -18.8960 C.3       8 GLP5        0.0000 
     51 CA         59.5540   -8.5205  -14.7405 C.3       4 GLC5        0.0000 
     52 CA         60.9140   -9.2660  -13.4740 C.3       8 GLP5        0.0000 
     53 CA         58.2335   -5.9885  -15.0255 C.3       4 GLC5        0.0000 
     54 CA         58.2730   -4.2020  -14.0440 C.3       8 GLP5        0.0000 
     55 CA         57.6570   -9.8155  -16.1780 C.3       4 GLC5        0.0000 
     56 CA         57.1200  -11.8560  -16.3490 C.3       8 GLP5        0.0000 
     57 CA         58.3185   -8.5100  -18.7380 C.3       4 GLC5        0.0000 
     58 CA         56.5040   -7.9670  -17.5620 C.3      12 GLL5        0.0000 
     59 CA         54.1590   -9.1375  -22.0045 C.3       4 GLC5        0.0000 
     60 CA         55.7760   -8.0700  -20.9950 C.3      12 GLL5        0.0000 
     61 CA         52.8080  -10.6520  -22.4600 C.3       8 GLP5        0.0000 
     62 CA         55.1118   -6.9430  -16.8487 C.3       4 GLC5        0.0000 
     63 CA         56.6955  -10.1480  -16.5529 C.3       4 GLC5        0.0000 
     64 CA         55.7310   -8.7890  -16.6130 C.3      12 GLL5        0.0000 
@<TRIPOS>BOND
@<TRIPOS>SUBSTRUCTURE
     1 ALC1       22 GROUP        1 X    ALC  0     ROOT ALC X 1
     2 SEC2        1 GROUP        1 X    SEC  0     **** SEC X 2
     3 LYC4        4 GROUP        1 X    LYC  0     **** LYC X 4
     4 GLC5       32 GROUP        1 X    GLC  0     **** GLC X 6
     5 ALP1       24 GROUP        1 Y    ALP  0     ROOT ALP Y 8
     6 SEP2        3 GROUP        1 Y    SEP  0     **** SEP Y 9
     7 LYP4        6 GROUP        1 Y    LYP  0     **** LYP Y 11
     8 GLP5       34 GROUP        1 Y    GLP  0     **** GLP Y 13
     9 ALL1       23 GROUP        1 Z    ALL  0     ROOT ALL Z 15
    10 SEL2        2 GROUP        1 Z    SEL  0     **** SEL Z 16
    11 LYL4        5 GROUP        1 Z    LYL  0     **** LYL Z 18
    12 GLL5       33 GROUP        1 Z    GLL  0     **** GLL Z 20
@<TRIPOS>SET

