#    Name: 2oox_AMP_2_ligand
#    Modification time : Mon Mar 24 17:44:07 2014

@<TRIPOS>MOLECULE
2oox_AMP_2_ligand
   35    37     1     0     0
SMALL
NO_CHARGES


@<TRIPOS>ATOM
      1 P          51.1550   -7.7560  -20.2620 P.3       1 AMP401      0.0000 
      2 O1P        51.3010   -9.2600  -20.0690 O.co2     1 AMP401      0.0000 
      3 O2P        50.5190   -7.0390  -19.1030 O.co2     1 AMP401      0.0000 
      4 O3P        50.4970   -7.5010  -21.5990 O.co2     1 AMP401      0.0000 
      5 O5'        52.6660   -7.1310  -20.3120 O.3       1 AMP401      0.0000 
      6 C5'        53.0900   -6.0770  -21.1620 C.3       1 AMP401      0.0000 
      7 C4'        54.6390   -6.0050  -21.3220 C.3       1 AMP401      0.0000 
      8 O4'        55.3880   -5.9660  -20.0810 O.3       1 AMP401      0.0000 
      9 C3'        55.2440   -7.1760  -22.1030 C.3       1 AMP401      0.0000 
     10 O3'        56.3100   -6.7230  -22.9560 O.3       1 AMP401      0.0000 
     11 C2'        55.7760   -8.0700  -20.9950 C.3       1 AMP401      0.0000 
     12 O2'        56.8800   -8.9030  -21.3380 O.3       1 AMP401      0.0000 
     13 C1'        56.1740   -7.1450  -19.8790 C.3       1 AMP401      0.0000 
     14 N9         55.7700   -7.8640  -18.6520 N.pl3     1 AMP401      0.0000 
     15 C8         54.6190   -8.5640  -18.4580 C.2       1 AMP401      0.0000 
     16 N7         54.5920   -9.1390  -17.2260 N.2       1 AMP401      0.0000 
     17 C5         55.7310   -8.7890  -16.6130 C.ar      1 AMP401      0.0000 
     18 C6         56.3450   -9.0370  -15.2900 C.ar      1 AMP401      0.0000 
     19 N6         55.7170   -9.7450  -14.3390 N.pl3     1 AMP401      0.0000 
     20 N1         57.5640   -8.5140  -15.0670 N.ar      1 AMP401      0.0000 
     21 C2         58.1940   -7.7750  -16.0070 C.ar      1 AMP401      0.0000 
     22 N3         57.7030   -7.5030  -17.2250 N.ar      1 AMP401      0.0000 
     23 C4         56.5040   -7.9670  -17.5620 C.ar      1 AMP401      0.0000 
     24 H          52.7654   -5.0847  -20.7887 H         1 AMP401      0.0000 
     25 H          52.6718   -6.1726  -22.1844 H         1 AMP401      0.0000 
     26 H          54.8776   -5.0960  -21.9055 H         1 AMP401      0.0000 
     27 H          54.4705   -7.6777  -22.6056 H         1 AMP401      0.0000 
     28 H          54.9319   -8.6593  -20.6174 H         1 AMP401      0.0000 
     29 H          57.1961   -6.9821  -19.9158 H         1 AMP401      0.0000 
     30 H          53.9020   -8.6431  -19.1215 H         1 AMP401      0.0000 
     31 H          54.7175   -9.7363  -14.3717 H         1 AMP401      0.0000 
     32 H          56.3045  -10.2180  -13.6824 H         1 AMP401      0.0000 
     33 H          59.1620   -7.3768  -15.7552 H         1 AMP401      0.0000 
     34 H          56.3360   -7.3805  -23.7090 H         1 AMP401      0.0000 
     35 H          56.7441   -9.1283  -22.3028 H         1 AMP401      0.0000 
@<TRIPOS>BOND
     1    2    1 ar   
     2    3    1 ar   
     3    4    1 ar   
     4    5    1 1    
     5    6    5 1    
     6    7    6 1    
     7   24    6 1    
     8   25    6 1    
     9    8    7 1    
    10    9    7 1    
    11   26    7 1    
    12   13    8 1    
    13   10    9 1    
    14   11    9 1    
    15   27    9 1    
    16   34   10 1    
    17   12   11 1    
    18   13   11 1    
    19   28   11 1    
    20   35   12 1    
    21   14   13 1    
    22   29   13 1    
    23   15   14 1    
    24   23   14 1    
    25   16   15 2    
    26   30   15 1    
    27   17   16 1    
    28   18   17 ar   
    29   23   17 ar   
    30   19   18 1    
    31   20   18 ar   
    32   31   19 1    
    33   32   19 1    
    34   21   20 ar   
    35   22   21 ar   
    36   33   21 1    
    37   23   22 ar   
@<TRIPOS>SUBSTRUCTURE
     1 AMP401      1 GROUP   
@<TRIPOS>SET

