#    Name: 1f20_FAD_1_INTS_M
#    Modification time : Tue Mar 25 00:40:50 2014

@<TRIPOS>MOLECULE
1f20_FAD_1_INTS_M
   75     0    12     0     0
SMALL
NO_CHARGES


@<TRIPOS>ATOM
      1 NZ         16.7175    0.7335   60.9425 N.4       3 LYC4        0.0000 
      2 NZ         17.0710   -0.0020   62.2450 N.4      11 LYL4        0.0000 
      3 NZ         15.0860    1.8090   59.5300 N.4       7 LYP4        0.0000 
      4 N          16.7175    0.7335   60.9425 N.am      2 SEC2        0.0000 
      5 N          17.0710   -0.0020   62.2450 N.am     10 SEL2        0.0000 
      6 N          16.3640    1.4690   59.6400 N.am      6 SEP2        0.0000 
      7 N          18.9470    2.9535   62.4670 N.am      2 SEC2        0.0000 
      8 N          18.8990    1.5540   62.2700 N.am     10 SEL2        0.0000 
      9 N          18.9950    4.3530   62.6640 N.am      6 SEP2        0.0000 
     10 CA         22.4865   -1.3595   65.8905 C.3       4 GLC5        0.0000 
     11 CA         21.2850   -2.9430   65.5040 C.3      12 GLL5        0.0000 
     12 CA         23.6880    0.2240   66.2770 C.3       8 GLP5        0.0000 
     13 N          12.2590    3.8135   71.5270 N.am      2 SEC2        0.0000 
     14 N          11.4790    2.8530   70.8400 N.am     10 SEL2        0.0000 
     15 N          13.0390    4.7740   72.2140 N.am      6 SEP2        0.0000 
     16 O           8.9745    3.9445   71.3230 O.2       1 ALC1        0.0000 
     17 O           9.1400    2.7550   70.7630 O.2       9 ALL1        0.0000 
     18 O           8.8090    5.1340   71.8830 O.2       5 ALP1        0.0000 
     19 N           5.6785    2.5490   69.6395 N.am      2 SEC2        0.0000 
     20 N           6.8270    2.5170   70.5420 N.am     10 SEL2        0.0000 
     21 N           4.5300    2.5810   68.7370 N.am      6 SEP2        0.0000 
     22 N           5.7725    1.4550   68.7410 N.am      2 SEC2        0.0000 
     23 N           7.0150    0.3290   68.7450 N.am     10 SEL2        0.0000 
     24 CA          6.7745   -1.4700   64.6690 C.3       4 GLC5        0.0000 
     25 CA          7.4870   -3.0100   65.8600 C.3      12 GLL5        0.0000 
     26 CA          6.0620    0.0700   63.4780 C.3       8 GLP5        0.0000 
     27 CA          9.0855   -5.4755   65.8830 C.3       4 GLC5        0.0000 
     28 CA          7.7600   -4.1460   64.8660 C.3      12 GLL5        0.0000 
     29 CA         10.4110   -6.8050   66.9000 C.3       8 GLP5        0.0000 
     30 CA         11.0970    1.6345   64.2165 C.3       4 GLC5        0.0000 
     31 CA         11.1760    0.5330   66.1620 C.3      12 GLL5        0.0000 
     32 CA         11.0180    2.7360   62.2710 C.3       8 GLP5        0.0000 
     33 CA         10.8060    2.3410   66.6130 C.3       4 GLC5        0.0000 
     34 CA         10.4360    4.1490   67.0640 C.3       8 GLP5        0.0000 
     35 O           9.1135    0.7940   65.4080 O.2       1 ALC1        0.0000 
     36 O          10.3010    0.2040   65.1080 O.2       9 ALL1        0.0000 
     37 O           7.9260    1.3840   65.7080 O.2       5 ALP1        0.0000 
     38 CA         12.4860    1.3295   63.8050 C.3       4 GLC5        0.0000 
     39 CA         12.5910    0.5550   65.5560 C.3      12 GLL5        0.0000 
     40 CA         12.3810    2.1040   62.0540 C.3       8 GLP5        0.0000 
     41 CA         11.6735    2.4875   65.6485 C.3       4 GLC5        0.0000 
     42 CA         10.7560    4.4200   65.7410 C.3       8 GLP5        0.0000 
     43 O          12.7135    3.3390   66.1125 O.2       1 ALC1        0.0000 
     44 O          13.3610    2.3330   66.8990 O.2       9 ALL1        0.0000 
     45 O          12.0660    4.3450   65.3260 O.2       5 ALP1        0.0000 
     46 CA         16.4220    1.3620   67.4955 C.3       4 GLC5        0.0000 
     47 CA         15.1510    1.0370   65.9430 C.3      12 GLL5        0.0000 
     48 CA         17.6930    1.6870   69.0480 C.3       8 GLP5        0.0000 
     49 NZ         15.1360    2.4740   61.7425 N.4       3 LYC4        0.0000 
     50 NZ         15.9060    2.9410   62.8550 N.4      11 LYL4        0.0000 
     51 N          15.1360    2.4740   61.7425 N.am      2 SEC2        0.0000 
     52 N          15.9060    2.9410   62.8550 N.am     10 SEL2        0.0000 
     53 N          14.3660    2.0070   60.6300 N.am      6 SEP2        0.0000 
     54 N          16.0730    4.2650   62.5980 N.am      2 SEC2        0.0000 
     55 N          16.2400    5.5890   62.3410 N.am      6 SEP2        0.0000 
     56 N          16.0455    4.9070   65.1080 N.am      2 SEC2        0.0000 
     57 N          16.5490    3.5690   65.1290 N.am     10 SEL2        0.0000 
     58 N          15.5420    6.2450   65.0870 N.am      6 SEP2        0.0000 
     59 N          16.9095    4.4365   66.2270 N.am      2 SEC2        0.0000 
     60 N          17.2700    5.3040   67.3250 N.am      6 SEP2        0.0000 
     61 CA         24.7548   -1.5067   69.2237 C.3       4 GLC5        0.0000 
     62 CA         23.2160   -2.8060   68.5760 C.3      12 GLL5        0.0000 
     63 CA         25.6250    0.0190   69.5650 C.3       8 GLP5        0.0000 
     64 CA          6.3153    0.9952   67.2395 C.3       4 GLC5        0.0000 
     65 CA          7.1620   -0.7480   67.8260 C.3      12 GLL5        0.0000 
     66 CA          6.0750    3.0610   66.9290 C.3       8 GLP5        0.0000 
     67 CA          8.5777   -2.2557   68.9632 C.3       4 GLC5        0.0000 
     68 CA          9.2950   -3.5170   70.3220 C.3       8 GLP5        0.0000 
     69 CA          3.9455   -1.4240   66.6589 C.3       4 GLC5        0.0000 
     70 CA          5.9490   -1.3930   67.2740 C.3      12 GLL5        0.0000 
     71 CA          2.4990   -0.3070   67.0460 C.3       8 GLP5        0.0000 
     72 CA          5.7270   -1.2355   64.8749 C.3       4 GLC5        0.0000 
     73 CA          8.1805   -3.5536   67.8091 C.3       4 GLC5        0.0000 
     74 CA          6.0630   -2.5150   66.2950 C.3      12 GLL5        0.0000 
     75 CA          8.6380   -4.5390   69.3780 C.3       8 GLP5        0.0000 
@<TRIPOS>BOND
@<TRIPOS>SUBSTRUCTURE
     1 ALC1       16 GROUP        1 X    ALC  0     ROOT ALC X 1
     2 SEC2        4 GROUP        1 X    SEC  0     **** SEC X 2
     3 LYC4        1 GROUP        1 X    LYC  0     **** LYC X 4
     4 GLC5       10 GROUP        1 X    GLC  0     **** GLC X 6
     5 ALP1       18 GROUP        1 Y    ALP  0     ROOT ALP Y 8
     6 SEP2        6 GROUP        1 Y    SEP  0     **** SEP Y 9
     7 LYP4        3 GROUP        1 Y    LYP  0     **** LYP Y 11
     8 GLP5       12 GROUP        1 Y    GLP  0     **** GLP Y 13
     9 ALL1       17 GROUP        1 Z    ALL  0     ROOT ALL Z 15
    10 SEL2        5 GROUP        1 Z    SEL  0     **** SEL Z 16
    11 LYL4        2 GROUP        1 Z    LYL  0     **** LYL Z 18
    12 GLL5       11 GROUP        1 Z    GLL  0     **** GLL Z 20
@<TRIPOS>SET

