#    Name: 1f20_FAD_1_ligand
#    Modification time : Tue Mar 25 00:40:50 2014

@<TRIPOS>MOLECULE
1f20_FAD_1_ligand
   84    89     1     0     0
SMALL
NO_CHARGES


@<TRIPOS>ATOM
      1 PA         18.0200    0.7130   63.0550 P.3       1 FAD1501     0.0000 
      2 O1A        17.0710   -0.0020   62.2450 O.co2     1 FAD1501     0.0000 
      3 O2A        18.8990    1.5540   62.2700 O.co2     1 FAD1501     0.0000 
      4 O5B        18.8790   -0.2500   63.7310 O.3       1 FAD1501     0.0000 
      5 C5B        18.2650   -1.2100   64.6490 C.3       1 FAD1501     0.0000 
      6 C4B        19.2690   -2.3500   64.5610 C.3       1 FAD1501     0.0000 
      7 O4B        20.4430   -1.7690   65.2250 O.3       1 FAD1501     0.0000 
      8 C3B        19.0150   -3.5650   65.4350 C.3       1 FAD1501     0.0000 
      9 O3B        17.9400   -4.4010   65.1220 O.3       1 FAD1501     0.0000 
     10 C2B        20.3640   -4.1910   65.3460 C.3       1 FAD1501     0.0000 
     11 O2B        20.6450   -4.8890   64.1480 O.3       1 FAD1501     0.0000 
     12 C1B        21.2850   -2.9430   65.5040 C.3       1 FAD1501     0.0000 
     13 N9A        21.7530   -2.6810   66.8640 N.pl3     1 FAD1501     0.0000 
     14 C8A        21.2890   -2.0320   68.0440 C.2       1 FAD1501     0.0000 
     15 N7A        22.1400   -2.0930   69.0670 N.2       1 FAD1501     0.0000 
     16 C5A        23.2160   -2.8060   68.5760 C.ar      1 FAD1501     0.0000 
     17 C6A        24.5530   -3.2590   69.1890 C.ar      1 FAD1501     0.0000 
     18 N6A        24.8940   -2.9950   70.4180 N.pl3     1 FAD1501     0.0000 
     19 N1A        25.4640   -4.0200   68.3250 N.ar      1 FAD1501     0.0000 
     20 C2A        25.1620   -4.3510   66.9600 C.ar      1 FAD1501     0.0000 
     21 N3A        23.9580   -3.9720   66.3280 N.ar      1 FAD1501     0.0000 
     22 C4A        23.0160   -3.2030   67.1700 C.ar      1 FAD1501     0.0000 
     23 N1         10.6420    1.2690   69.5240 N.2       1 FAD1501     0.0000 
     24 C2         10.5160    2.2980   70.3850 C.2       1 FAD1501     0.0000 
     25 O2         11.4790    2.8530   70.8400 O.2       1 FAD1501     0.0000 
     26 N3          9.1400    2.7550   70.7630 N.am      1 FAD1501     0.0000 
     27 C4          7.9370    2.1170   70.2300 C.2       1 FAD1501     0.0000 
     28 O4          6.8270    2.5170   70.5420 O.2       1 FAD1501     0.0000 
     29 C4X         8.1050    0.9870   69.2950 C.2       1 FAD1501     0.0000 
     30 N5          7.0150    0.3290   68.7450 N.2       1 FAD1501     0.0000 
     31 C5X         7.1620   -0.7480   67.8260 C.ar      1 FAD1501     0.0000 
     32 C6          5.9490   -1.3930   67.2740 C.ar      1 FAD1501     0.0000 
     33 C7          6.0630   -2.5150   66.2950 C.ar      1 FAD1501     0.0000 
     34 C7M         4.7780   -3.1280   65.7590 C.3       1 FAD1501     0.0000 
     35 C8          7.4870   -3.0100   65.8600 C.ar      1 FAD1501     0.0000 
     36 C8M         7.7600   -4.1460   64.8660 C.3       1 FAD1501     0.0000 
     37 C9          8.6710   -2.3740   66.4030 C.ar      1 FAD1501     0.0000 
     38 C9A         8.5590   -1.2410   67.3830 C.ar      1 FAD1501     0.0000 
     39 N10         9.7200   -0.5010   68.0050 N.pl3     1 FAD1501     0.0000 
     40 C10         9.5370    0.5940   68.9540 C.2       1 FAD1501     0.0000 
     41 C1'        11.0690   -0.4430   67.3820 C.3       1 FAD1501     0.0000 
     42 C2'        11.1760    0.5330   66.1620 C.3       1 FAD1501     0.0000 
     43 O2'        10.3010    0.2040   65.1080 O.3       1 FAD1501     0.0000 
     44 C3'        12.5910    0.5550   65.5560 C.3       1 FAD1501     0.0000 
     45 O3'        12.8690   -0.8420   65.1680 O.3       1 FAD1501     0.0000 
     46 C4'        13.7210    0.9800   66.5590 C.3       1 FAD1501     0.0000 
     47 O4'        13.3610    2.3330   66.8990 O.3       1 FAD1501     0.0000 
     48 C5'        15.1510    1.0370   65.9430 C.3       1 FAD1501     0.0000 
     49 O5'        15.1180    1.7580   64.6750 O.3       1 FAD1501     0.0000 
     50 P          16.2880    2.4940   64.1920 P.3       1 FAD1501     0.0000 
     51 O1P        15.9060    2.9410   62.8550 O.co2     1 FAD1501     0.0000 
     52 O2P        16.5490    3.5690   65.1290 O.co2     1 FAD1501     0.0000 
     53 O3P        17.3260    1.4360   64.1690 O.3       1 FAD1501     0.0000 
     54 H          17.3293   -1.5441   64.2926 H         1 FAD1501     0.0000 
     55 H          18.2440   -0.8424   65.6382 H         1 FAD1501     0.0000 
     56 H          19.5024   -2.6003   63.5944 H         1 FAD1501     0.0000 
     57 H          18.9616   -3.1576   66.4716 H         1 FAD1501     0.0000 
     58 H          20.5256   -4.7749   66.2405 H         1 FAD1501     0.0000 
     59 H          22.0707   -2.9838   64.8109 H         1 FAD1501     0.0000 
     60 H          20.4021   -1.5867   68.0552 H         1 FAD1501     0.0000 
     61 H          24.2335   -2.4700   70.9548 H         1 FAD1501     0.0000 
     62 H          25.7849   -3.3417   70.7116 H         1 FAD1501     0.0000 
     63 H          25.8665   -4.8927   66.4238 H         1 FAD1501     0.0000 
     64 H           9.0563    3.5316   71.4092 H         1 FAD1501     0.0000 
     65 H           5.0419   -1.0783   67.5560 H         1 FAD1501     0.0000 
     66 H           9.5921   -2.6797   66.1335 H         1 FAD1501     0.0000 
     67 H          11.3745   -1.4447   67.0297 H         1 FAD1501     0.0000 
     68 H          11.8233   -0.1256   68.1244 H         1 FAD1501     0.0000 
     69 H          10.9788    1.5428   66.5298 H         1 FAD1501     0.0000 
     70 H          12.6156    1.1784   64.7075 H         1 FAD1501     0.0000 
     71 H          13.6982    0.3567   67.3950 H         1 FAD1501     0.0000 
     72 H          15.4919    0.0103   65.8098 H         1 FAD1501     0.0000 
     73 H          15.8002    1.5306   66.6662 H         1 FAD1501     0.0000 
     74 H           4.9613   -3.8676   65.1113 H         1 FAD1501     0.0000 
     75 H           4.2161   -3.5124   66.4915 H         1 FAD1501     0.0000 
     76 H           4.2155   -2.4530   65.2816 H         1 FAD1501     0.0000 
     77 H           8.7398   -4.2962   64.7336 H         1 FAD1501     0.0000 
     78 H           7.3699   -5.0129   65.1764 H         1 FAD1501     0.0000 
     79 H           7.3686   -3.9541   63.9660 H         1 FAD1501     0.0000 
     80 H          18.3356   -5.1358   64.5710 H         1 FAD1501     0.0000 
     81 H          21.6086   -4.7003   63.9586 H         1 FAD1501     0.0000 
     82 H           9.4394    0.6576   65.3359 H         1 FAD1501     0.0000 
     83 H          11.9837   -1.2140   64.8887 H         1 FAD1501     0.0000 
     84 H          13.1105    2.7601   66.0302 H         1 FAD1501     0.0000 
@<TRIPOS>BOND
     1    2    1 ar   
     2    3    1 ar   
     3    4    1 1    
     4   53    1 1    
     5    5    4 1    
     6    6    5 1    
     7   54    5 1    
     8   55    5 1    
     9    7    6 1    
    10    8    6 1    
    11   56    6 1    
    12   12    7 1    
    13    9    8 1    
    14   10    8 1    
    15   57    8 1    
    16   80    9 1    
    17   11   10 1    
    18   12   10 1    
    19   58   10 1    
    20   81   11 1    
    21   13   12 1    
    22   59   12 1    
    23   14   13 1    
    24   22   13 1    
    25   15   14 2    
    26   60   14 1    
    27   16   15 1    
    28   17   16 ar   
    29   22   16 ar   
    30   18   17 1    
    31   19   17 ar   
    32   61   18 1    
    33   62   18 1    
    34   20   19 ar   
    35   21   20 ar   
    36   63   20 1    
    37   22   21 ar   
    38   24   23 1    
    39   40   23 2    
    40   25   24 2    
    41   26   24 am   
    42   27   26 am   
    43   64   26 1    
    44   28   27 2    
    45   29   27 1    
    46   30   29 2    
    47   40   29 1    
    48   31   30 1    
    49   32   31 ar   
    50   38   31 ar   
    51   33   32 ar   
    52   65   32 1    
    53   34   33 1    
    54   35   33 ar   
    55   74   34 1    
    56   75   34 1    
    57   76   34 1    
    58   36   35 1    
    59   37   35 ar   
    60   77   36 1    
    61   78   36 1    
    62   79   36 1    
    63   38   37 ar   
    64   66   37 1    
    65   39   38 1    
    66   40   39 1    
    67   41   39 1    
    68   42   41 1    
    69   67   41 1    
    70   68   41 1    
    71   43   42 1    
    72   44   42 1    
    73   69   42 1    
    74   82   43 1    
    75   45   44 1    
    76   46   44 1    
    77   70   44 1    
    78   83   45 1    
    79   47   46 1    
    80   48   46 1    
    81   71   46 1    
    82   84   47 1    
    83   49   48 1    
    84   72   48 1    
    85   73   48 1    
    86   50   49 1    
    87   51   50 ar   
    88   52   50 ar   
    89   53   50 1    
@<TRIPOS>SUBSTRUCTURE
     1 FAD1501     1 GROUP   
@<TRIPOS>SET

