#    Name: 1t13_INI_2_INTS_M
#    Modification time : Tue Mar 25 04:07:47 2014

@<TRIPOS>MOLECULE
1t13_INI_2_INTS_M
   39     0     9     0     0
SMALL
NO_CHARGES


@<TRIPOS>ATOM
      1 N          72.3115   51.6755   41.4310 N.am      2 SEC2        0.0000 
      2 N          73.2030   52.4390   42.1250 N.am      8 SEL2        0.0000 
      3 N          71.4200   50.9120   40.7370 N.am      5 SEP2        0.0000 
      4 O          75.3540   54.4935   42.4855 O.2       1 ALC1        0.0000 
      5 O          75.3380   53.2830   41.7910 O.2       7 ALL1        0.0000 
      6 O          75.3700   55.7040   43.1800 O.2       4 ALP1        0.0000 
      7 N          77.6600   55.5475   41.2390 N.am      2 SEC2        0.0000 
      8 N          77.3650   54.1390   41.4860 N.am      8 SEL2        0.0000 
      9 N          77.9550   56.9560   40.9920 N.am      5 SEP2        0.0000 
     10 CA         77.6515   51.2800   42.3785 C.3       3 GLC5        0.0000 
     11 CA         77.0430   51.6940   40.8280 C.3       9 GLL5        0.0000 
     12 CA         78.2600   50.8660   43.9290 C.3       6 GLP5        0.0000 
     13 CA         76.5530   50.3625   42.4015 C.3       3 GLC5        0.0000 
     14 CA         75.9840   50.6760   40.8180 C.3       9 GLL5        0.0000 
     15 CA         77.1220   50.0490   43.9850 C.3       6 GLP5        0.0000 
     16 CA         74.9970   50.5205   37.4870 C.3       3 GLC5        0.0000 
     17 CA         75.6780   49.1040   38.9860 C.3       9 GLL5        0.0000 
     18 CA         74.3160   51.9370   35.9880 C.3       6 GLP5        0.0000 
     19 N          72.2135   49.6180   38.8585 N.am      2 SEC2        0.0000 
     20 N          73.4320   49.1720   39.6000 N.am      8 SEL2        0.0000 
     21 N          70.9950   50.0640   38.1170 N.am      5 SEP2        0.0000 
     22 O          76.2995   45.1765   36.9190 O.2       1 ALC1        0.0000 
     23 O          75.6470   46.2990   37.6320 O.2       7 ALL1        0.0000 
     24 O          76.9520   44.0540   36.2060 O.2       4 ALP1        0.0000 
     25 CA         73.3260   43.2610   36.7635 C.3       3 GLC5        0.0000 
     26 CA         74.2550   44.4870   37.7010 C.3       9 GLL5        0.0000 
     27 CA         72.3970   42.0350   35.8260 C.3       6 GLP5        0.0000 
     28 CA         74.8440   44.1335   36.0325 C.3       3 GLC5        0.0000 
     29 CA         75.4330   43.7800   34.3640 C.3       6 GLP5        0.0000 
     30 CA         73.0180   45.5355   36.2435 C.3       3 GLC5        0.0000 
     31 CA         71.7810   46.5840   34.7860 C.3       6 GLP5        0.0000 
     32 N          73.5525   43.9360   36.5470 N.am      2 SEC2        0.0000 
     33 N          72.8980   44.4230   38.0190 N.am      8 SEL2        0.0000 
     34 N          74.2070   43.4490   35.0750 N.am      5 SEP2        0.0000 
     35 CA         73.0037   48.2887   40.5772 C.3       3 GLC5        0.0000 
     36 CA         74.0420   46.8820   39.3490 C.3       9 GLL5        0.0000 
     37 CA         71.8420   48.9430   42.0730 C.3       6 GLP5        0.0000 
     38 CA         72.9767   47.9908   37.8357 C.3       3 GLC5        0.0000 
     39 CA         71.7880   48.3470   36.5900 C.3       6 GLP5        0.0000 
@<TRIPOS>BOND
@<TRIPOS>SUBSTRUCTURE
     1 ALC1        4 GROUP        1 X    ALC  0     ROOT ALC X 1
     2 SEC2        1 GROUP        1 X    SEC  0     **** SEC X 2
     3 GLC5       10 GROUP        1 X    GLC  0     **** GLC X 6
     4 ALP1        6 GROUP        1 Y    ALP  0     ROOT ALP Y 8
     5 SEP2        3 GROUP        1 Y    SEP  0     **** SEP Y 9
     6 GLP5       12 GROUP        1 Y    GLP  0     **** GLP Y 13
     7 ALL1        5 GROUP        1 Z    ALL  0     ROOT ALL Z 15
     8 SEL2        2 GROUP        1 Z    SEL  0     **** SEL Z 16
     9 GLL5       11 GROUP        1 Z    GLL  0     **** GLL Z 20
@<TRIPOS>SET

