#    Name: 1t13_INI_2_ligand
#    Modification time : Tue Mar 25 04:07:47 2014

@<TRIPOS>MOLECULE
1t13_INI_2_ligand
   35    35     1     0     0
SMALL
NO_CHARGES


@<TRIPOS>ATOM
      1 N1         74.7220   51.0660   41.2890 N.am      1 INI205      0.0000 
      2 C2         74.3660   52.3180   41.7670 C.2       1 INI205      0.0000 
      3 O2         73.2030   52.4390   42.1250 O.2       1 INI205      0.0000 
      4 N3         75.3380   53.2830   41.7910 N.am      1 INI205      0.0000 
      5 C4         76.6490   53.1100   41.3710 C.2       1 INI205      0.0000 
      6 O4         77.3650   54.1390   41.4860 O.2       1 INI205      0.0000 
      7 C5         77.0430   51.6940   40.8280 C.2       1 INI205      0.0000 
      8 N5         78.4110   51.4910   40.3790 N.pl3     1 INI205      0.0000 
      9 O51        79.2070   52.3720   40.4210 O.2       1 INI205      0.0000 
     10 O52        78.7410   50.4000   39.9530 O.2       1 INI205      0.0000 
     11 C6         75.9840   50.6760   40.8180 C.2       1 INI205      0.0000 
     12 N7         76.0890   49.3290   40.3900 N.pl3     1 INI205      0.0000 
     13 C8         75.6780   49.1040   38.9860 C.3       1 INI205      0.0000 
     14 C9         74.2890   48.3870   38.8140 C.3       1 INI205      0.0000 
     15 O9         73.4320   49.1720   39.6000 O.3       1 INI205      0.0000 
     16 C10        74.0420   46.8820   39.3490 C.3       1 INI205      0.0000 
     17 O10        74.3400   46.7840   40.7030 O.3       1 INI205      0.0000 
     18 C11        74.8680   45.5920   38.6450 C.3       1 INI205      0.0000 
     19 O11        75.6470   46.2990   37.6320 O.3       1 INI205      0.0000 
     20 C12        74.2550   44.4870   37.7010 C.3       1 INI205      0.0000 
     21 O12        72.8980   44.4230   38.0190 O.3       1 INI205      0.0000 
     22 H          73.9556   50.3123   41.2756 H         1 INI205      0.0000 
     23 H          75.0718   54.2498   42.1621 H         1 INI205      0.0000 
     24 H          76.3987   48.5976   40.9431 H         1 INI205      0.0000 
     25 H          76.4282   48.4887   38.4536 H         1 INI205      0.0000 
     26 H          75.6169   50.0640   38.4386 H         1 INI205      0.0000 
     27 H          73.9868   48.4349   37.7907 H         1 INI205      0.0000 
     28 H          72.9777   46.6387   39.1828 H         1 INI205      0.0000 
     29 H          75.5327   45.1914   39.3391 H         1 INI205      0.0000 
     30 H          74.7948   43.5745   37.9108 H         1 INI205      0.0000 
     31 H          74.4500   44.8101   36.6883 H         1 INI205      0.0000 
     32 H          73.0049   48.5302   40.2369 H         1 INI205      0.0000 
     33 H          74.0536   45.8624   40.9649 H         1 INI205      0.0000 
     34 H          76.1342   45.5821   37.1333 H         1 INI205      0.0000 
     35 H          72.5377   45.3294   37.7987 H         1 INI205      0.0000 
@<TRIPOS>BOND
     1    2    1 1    
     2   11    1 1    
     3   22    1 1    
     4    3    2 2    
     5    4    2 1    
     6    5    4 1    
     7   23    4 1    
     8    6    5 2    
     9    7    5 1    
    10    8    7 1    
    11   11    7 2    
    12    9    8 2    
    13   10    8 2    
    14   12   11 1    
    15   13   12 1    
    16   24   12 1    
    17   14   13 1    
    18   25   13 1    
    19   26   13 1    
    20   15   14 1    
    21   16   14 1    
    22   27   14 1    
    23   32   15 1    
    24   17   16 1    
    25   18   16 1    
    26   28   16 1    
    27   33   17 1    
    28   19   18 1    
    29   20   18 1    
    30   29   18 1    
    31   34   19 1    
    32   21   20 1    
    33   30   20 1    
    34   31   20 1    
    35   35   21 1    
@<TRIPOS>SUBSTRUCTURE
     1 INI205      1 GROUP   
@<TRIPOS>SET

