#    Name: 4nxu_ADP_1_INTS_M
#    Modification time : Tue Mar 25 13:23:10 2014

@<TRIPOS>MOLECULE
4nxu_ADP_1_INTS_M
   56     0    12     0     0
SMALL
NO_CHARGES


@<TRIPOS>ATOM
      1 NZ         -3.8990  -24.7815  -10.9865 N.4       3 LYC4        0.0000 
      2 NZ         -5.0350  -25.5020  -11.3190 N.4      11 LYL4        0.0000 
      3 NZ         -2.7630  -24.0610  -10.6540 N.4       7 LYP4        0.0000 
      4 N          -5.8385  -25.0580  -10.3470 N.am      2 SEC2        0.0000 
      5 N          -5.0350  -25.5020  -11.3190 N.am     10 SEL2        0.0000 
      6 N          -6.6420  -24.6140   -9.3750 N.am      6 SEP2        0.0000 
      7 N          -3.8990  -24.7815  -10.9865 N.am      2 SEC2        0.0000 
      8 N          -2.7630  -24.0610  -10.6540 N.am      6 SEP2        0.0000 
      9 N          -7.6985  -26.9125  -12.1425 N.am      2 SEC2        0.0000 
     10 N          -6.4310  -27.5170  -11.9170 N.am     10 SEL2        0.0000 
     11 N          -8.9660  -26.3080  -12.3680 N.am      6 SEP2        0.0000 
     12 NZ         -3.3320  -28.0810   -7.3185 N.4       3 LYC4        0.0000 
     13 NZ         -3.2680  -27.8730   -8.6250 N.4      11 LYL4        0.0000 
     14 NZ         -3.5660  -27.2870   -5.1550 N.4       7 LYP4        0.0000 
     15 N          -3.3320  -28.0810   -7.3185 N.am      2 SEC2        0.0000 
     16 N          -3.2680  -27.8730   -8.6250 N.am     10 SEL2        0.0000 
     17 N          -3.3960  -28.2890   -6.0120 N.am      6 SEP2        0.0000 
     18 N          -6.1775  -26.7875   -7.9895 N.am      2 SEC2        0.0000 
     19 N          -5.8480  -27.7220   -9.1430 N.am     10 SEL2        0.0000 
     20 N          -6.5070  -25.8530   -6.8360 N.am      6 SEP2        0.0000 
     21 CA         -8.8510  -32.6990   -8.1555 C.3       4 GLC5        0.0000 
     22 CA         -7.1620  -33.2050   -9.0660 C.3      12 GLL5        0.0000 
     23 CA        -10.5400  -32.1930   -7.2450 C.3       8 GLP5        0.0000 
     24 CA         -7.5525  -35.3025   -9.6800 C.3       4 GLC5        0.0000 
     25 CA         -7.9430  -37.4000  -10.2940 C.3       8 GLP5        0.0000 
     26 O          -9.1640  -34.1300   -9.7655 O.2       1 ALC1        0.0000 
     27 O          -7.8500  -34.4440   -9.1270 O.2       9 ALL1        0.0000 
     28 O         -10.4780  -33.8160  -10.4040 O.2       5 ALP1        0.0000 
     29 N          -6.8755  -31.4330   -3.6405 N.am      2 SEC2        0.0000 
     30 N          -6.6270  -32.2970   -4.8380 N.am     10 SEL2        0.0000 
     31 N          -7.1240  -30.5690   -2.4430 N.am      6 SEP2        0.0000 
     32 CA         -5.8295  -35.9805   -3.3705 C.3       4 GLC5        0.0000 
     33 CA         -5.2120  -33.9020   -3.3430 C.3      12 GLL5        0.0000 
     34 CA         -6.4470  -38.0590   -3.3980 C.3       8 GLP5        0.0000 
     35 CA         -3.3910  -33.2440   -2.4400 C.3       4 GLC5        0.0000 
     36 CA         -1.5700  -32.5860   -1.5370 C.3       8 GLP5        0.0000 
     37 O          -6.3375  -32.0165   -2.2780 O.2       1 ALC1        0.0000 
     38 O          -5.5510  -33.4640   -2.1130 O.2       9 ALL1        0.0000 
     39 O          -7.1240  -30.5690   -2.4430 O.2       5 ALP1        0.0000 
     40 N          -3.5280  -35.4545   -2.7545 N.am      2 SEC2        0.0000 
     41 N          -4.3390  -34.9340   -3.5310 N.am     10 SEL2        0.0000 
     42 N          -2.7170  -35.9750   -1.9780 N.am      6 SEP2        0.0000 
     43 CA         -4.7005  -37.0175   -5.1785 C.3       4 GLC5        0.0000 
     44 CA         -4.0040  -35.3700   -4.7720 C.3      12 GLL5        0.0000 
     45 CA         -5.3970  -38.6650   -5.5850 C.3       8 GLP5        0.0000 
     46 CA         -3.1275  -36.3410   -3.3995 C.3       4 GLC5        0.0000 
     47 CA         -2.2510  -37.3120   -2.0270 C.3       8 GLP5        0.0000 
     48 CA         -7.5693  -34.6028   -7.3700 C.3       4 GLC5        0.0000 
     49 CA         -5.8530  -33.3280   -8.2960 C.3      12 GLL5        0.0000 
     50 CA         -8.6310  -35.9390   -6.0590 C.3       8 GLP5        0.0000 
     51 CA         -7.4467  -33.9802   -3.2812 C.3       4 GLC5        0.0000 
     52 CA         -5.7730  -33.2870   -4.5660 C.3      12 GLL5        0.0000 
     53 CA         -9.4010  -34.3660   -2.6080 C.3       8 GLP5        0.0000 
     54 CA         -7.0972  -34.7482   -5.6395 C.3       4 GLC5        0.0000 
     55 CA         -3.6317  -32.4933   -4.3042 C.3       4 GLC5        0.0000 
     56 CA         -1.7710  -31.3920   -4.6540 C.3       8 GLP5        0.0000 
@<TRIPOS>BOND
@<TRIPOS>SUBSTRUCTURE
     1 ALC1       26 GROUP        1 X    ALC  0     ROOT ALC X 1
     2 SEC2        4 GROUP        1 X    SEC  0     **** SEC X 2
     3 LYC4        1 GROUP        1 X    LYC  0     **** LYC X 4
     4 GLC5       21 GROUP        1 X    GLC  0     **** GLC X 6
     5 ALP1       28 GROUP        1 Y    ALP  0     ROOT ALP Y 8
     6 SEP2        6 GROUP        1 Y    SEP  0     **** SEP Y 9
     7 LYP4        3 GROUP        1 Y    LYP  0     **** LYP Y 11
     8 GLP5       23 GROUP        1 Y    GLP  0     **** GLP Y 13
     9 ALL1       27 GROUP        1 Z    ALL  0     ROOT ALL Z 15
    10 SEL2        5 GROUP        1 Z    SEL  0     **** SEL Z 16
    11 LYL4        2 GROUP        1 Z    LYL  0     **** LYL Z 18
    12 GLL5       22 GROUP        1 Z    GLL  0     **** GLL Z 20
@<TRIPOS>SET

