#    Name: 4nxu_ADP_1_ligand
#    Modification time : Tue Mar 25 13:23:10 2014

@<TRIPOS>MOLECULE
4nxu_ADP_1_ligand
   39    41     1     0     0
SMALL
NO_CHARGES


@<TRIPOS>ATOM
      1 PB         -5.0740  -26.8620  -11.9640 P.3       1 ADP501      0.0000 
      2 O1B        -5.0350  -25.5020  -11.3190 O.co2     1 ADP501      0.0000 
      3 O2B        -4.3900  -26.9370  -13.3080 O.co2     1 ADP501      0.0000 
      4 O3B        -6.4310  -27.5170  -11.9170 O.co2     1 ADP501      0.0000 
      5 PA         -4.4580  -28.1850   -9.4990 P.3       1 ADP501      0.0000 
      6 O1A        -3.2680  -27.8730   -8.6250 O.co2     1 ADP501      0.0000 
      7 O2A        -5.8480  -27.7220   -9.1430 O.co2     1 ADP501      0.0000 
      8 O3A        -4.1390  -27.8000  -11.0370 O.3       1 ADP501      0.0000 
      9 O5'        -4.5230  -29.7890   -9.6600 O.3       1 ADP501      0.0000 
     10 C5'        -5.6970  -30.4320  -10.1150 C.3       1 ADP501      0.0000 
     11 C4'        -5.4530  -31.9160  -10.1400 C.3       1 ADP501      0.0000 
     12 O4'        -4.9830  -32.3400   -8.8570 O.3       1 ADP501      0.0000 
     13 C3'        -6.7330  -32.6540  -10.4130 C.3       1 ADP501      0.0000 
     14 O3'        -6.4850  -33.6500  -11.3950 O.3       1 ADP501      0.0000 
     15 C2'        -7.1620  -33.2050   -9.0660 C.3       1 ADP501      0.0000 
     16 O2'        -7.8500  -34.4440   -9.1270 O.3       1 ADP501      0.0000 
     17 C1'        -5.8530  -33.3280   -8.2960 C.3       1 ADP501      0.0000 
     18 N9         -5.9880  -33.1200   -6.8180 N.pl3     1 ADP501      0.0000 
     19 C8         -6.7520  -32.1980   -6.1900 C.2       1 ADP501      0.0000 
     20 N7         -6.6270  -32.2970   -4.8380 N.2       1 ADP501      0.0000 
     21 C5         -5.7730  -33.2870   -4.5660 C.ar      1 ADP501      0.0000 
     22 C6         -5.2120  -33.9020   -3.3430 C.ar      1 ADP501      0.0000 
     23 N6         -5.5510  -33.4640   -2.1130 N.pl3     1 ADP501      0.0000 
     24 N1         -4.3390  -34.9340   -3.5310 N.ar      1 ADP501      0.0000 
     25 C2         -4.0040  -35.3700   -4.7720 C.ar      1 ADP501      0.0000 
     26 N3         -4.4830  -34.8500   -5.9130 N.ar      1 ADP501      0.0000 
     27 C4         -5.3540  -33.8280   -5.8740 C.ar      1 ADP501      0.0000 
     28 H          -5.9713  -30.1130  -11.1267 H         1 ADP501      0.0000 
     29 H          -6.5509  -30.2364   -9.4568 H         1 ADP501      0.0000 
     30 H          -4.7451  -32.1494  -10.9059 H         1 ADP501      0.0000 
     31 H          -7.4615  -31.9300  -10.7305 H         1 ADP501      0.0000 
     32 H          -7.7371  -32.4284   -8.5687 H         1 ADP501      0.0000 
     33 H          -5.4491  -34.3170   -8.4902 H         1 ADP501      0.0000 
     34 H          -7.3223  -31.5426   -6.6436 H         1 ADP501      0.0000 
     35 H          -6.1584  -32.6702   -2.0805 H         1 ADP501      0.0000 
     36 H          -5.1648  -33.9720   -1.3431 H         1 ADP501      0.0000 
     37 H          -3.3101  -36.1843   -4.8389 H         1 ADP501      0.0000 
     38 H          -7.0435  -34.4316  -11.1174 H         1 ADP501      0.0000 
     39 H          -8.7218  -34.2343   -9.5698 H         1 ADP501      0.0000 
@<TRIPOS>BOND
     1    2    1 ar   
     2    3    1 ar   
     3    4    1 ar   
     4    8    1 1    
     5    6    5 ar   
     6    7    5 ar   
     7    8    5 1    
     8    9    5 1    
     9   10    9 1    
    10   11   10 1    
    11   28   10 1    
    12   29   10 1    
    13   12   11 1    
    14   13   11 1    
    15   30   11 1    
    16   17   12 1    
    17   14   13 1    
    18   15   13 1    
    19   31   13 1    
    20   38   14 1    
    21   16   15 1    
    22   17   15 1    
    23   32   15 1    
    24   39   16 1    
    25   18   17 1    
    26   33   17 1    
    27   19   18 1    
    28   27   18 1    
    29   20   19 2    
    30   34   19 1    
    31   21   20 1    
    32   22   21 ar   
    33   27   21 ar   
    34   23   22 1    
    35   24   22 ar   
    36   35   23 1    
    37   36   23 1    
    38   25   24 ar   
    39   26   25 ar   
    40   37   25 1    
    41   27   26 ar   
@<TRIPOS>SUBSTRUCTURE
     1 ADP501      1 GROUP   
@<TRIPOS>SET

