#    Name: 3vt5_YI2_1_INTS_M
#    Modification time : Tue Mar 25 01:32:57 2014

@<TRIPOS>MOLECULE
3vt5_YI2_1_INTS_M
  126     0     9     0     0
SMALL
NO_CHARGES


@<TRIPOS>ATOM
      1 CA         10.9605   10.3490   28.2000 C.3       3 GLC5        0.0000 
      2 CA         13.0440    9.9250   27.6190 C.3       9 GLL5        0.0000 
      3 CA          8.8770   10.7730   28.7810 C.3       6 GLP5        0.0000 
      4 CA         14.5210    7.1260   23.0400 C.3       3 GLC5        0.0000 
      5 CA         14.5730    7.6700   24.9820 C.3       9 GLL5        0.0000 
      6 CA         14.4690    6.5820   21.0980 C.3       6 GLP5        0.0000 
      7 CA         14.0000    4.7410   25.3115 C.3       3 GLC5        0.0000 
      8 CA         14.2550    6.7310   26.1640 C.3       9 GLL5        0.0000 
      9 CA         13.7450    2.7510   24.4590 C.3       6 GLP5        0.0000 
     10 CA         15.8290    7.1915   27.6995 C.3       3 GLC5        0.0000 
     11 CA         17.4030    7.6520   29.2350 C.3       6 GLP5        0.0000 
     12 CA         14.1790    4.4150   30.1355 C.3       3 GLC5        0.0000 
     13 CA         13.3640    5.3380   28.6180 C.3       9 GLL5        0.0000 
     14 CA         14.9940    3.4920   31.6530 C.3       6 GLP5        0.0000 
     15 CA         13.2370    3.5285   28.5340 C.3       3 GLC5        0.0000 
     16 CA         13.1100    1.7190   28.4500 C.3       6 GLP5        0.0000 
     17 CA          7.5005    8.0855   27.3925 C.3       3 GLC5        0.0000 
     18 CA          7.4160    6.3000   27.9410 C.3       9 GLL5        0.0000 
     19 CA          7.5850    9.8710   26.8440 C.3       6 GLP5        0.0000 
     20 CA          6.2740    6.5670   26.2040 C.3       3 GLC5        0.0000 
     21 CA          5.1320    6.8340   24.4670 C.3       6 GLP5        0.0000 
     22 CA          9.3870    2.4715   24.8925 C.3       3 GLC5        0.0000 
     23 CA          8.8970    3.9110   26.2530 C.3       9 GLL5        0.0000 
     24 CA          9.8770    1.0320   23.5320 C.3       6 GLP5        0.0000 
     25 CA          7.8660    1.0030   27.2375 C.3       3 GLC5        0.0000 
     26 CA          7.9720    2.6910   26.4340 C.3       9 GLL5        0.0000 
     27 CA          7.7600   -0.6850   28.0410 C.3       6 GLP5        0.0000 
     28 CA          5.7910    2.7315   26.7195 C.3       3 GLC5        0.0000 
     29 CA          3.6100    2.7720   27.0050 C.3       6 GLP5        0.0000 
     30 CA          6.8605    1.8640   24.9290 C.3       3 GLC5        0.0000 
     31 CA          5.7490    1.0370   23.4240 C.3       6 GLP5        0.0000 
     32 CA          8.5560    1.3200   25.2255 C.3       3 GLC5        0.0000 
     33 CA          9.1400   -0.0510   24.0170 C.3       6 GLP5        0.0000 
     34 N          10.5275    3.7630   29.5880 N.am      2 SEC2        0.0000 
     35 N          10.1720    3.6110   28.3020 N.am      8 SEL2        0.0000 
     36 N          10.8830    3.9150   30.8740 N.am      5 SEP2        0.0000 
     37 N          11.0940    2.6135   27.9635 N.am      2 SEC2        0.0000 
     38 N          12.0160    1.6160   27.6250 N.am      5 SEP2        0.0000 
     39 CA          9.9425    8.8225   28.6145 C.3       3 GLC5        0.0000 
     40 CA         11.0080    6.8720   28.4480 C.3       9 GLL5        0.0000 
     41 CA          9.4300    7.6830   29.8135 C.3       3 GLC5        0.0000 
     42 CA          7.8520    8.4940   31.1790 C.3       6 GLP5        0.0000 
     43 CA         10.9980    5.9735   30.0260 C.3       3 GLC5        0.0000 
     44 CA         10.9880    5.0750   31.6040 C.3       6 GLP5        0.0000 
     45 CA         10.4125   10.3005   26.1340 C.3       3 GLC5        0.0000 
     46 CA         11.7590    8.7380   25.7260 C.3       9 GLL5        0.0000 
     47 CA          9.0660   11.8630   26.5420 C.3       6 GLP5        0.0000 
     48 CA         10.7285    7.4520   24.6610 C.3       3 GLC5        0.0000 
     49 CA          9.6980    6.1660   23.5960 C.3       6 GLP5        0.0000 
     50 CA         11.0755   11.6155   26.7650 C.3       3 GLC5        0.0000 
     51 CA         13.0850   11.3680   26.9880 C.3       9 GLL5        0.0000 
     52 CA         14.8130   12.3850   27.5155 C.3       3 GLC5        0.0000 
     53 CA         16.5410   13.4020   28.0430 C.3       6 GLP5        0.0000 
     54 CA         12.7835   13.3880   27.2835 C.3       3 GLC5        0.0000 
     55 CA         12.4820   15.4080   27.5790 C.3       6 GLP5        0.0000 
     56 CA         15.6430   12.4110   26.3570 C.3       3 GLC5        0.0000 
     57 CA         14.2240   11.5590   25.9650 C.3       9 GLL5        0.0000 
     58 CA         17.0620   13.2630   26.7490 C.3       6 GLP5        0.0000 
     59 CA         16.1515   11.2670   25.7315 C.3       3 GLC5        0.0000 
     60 CA         14.3700   10.3510   24.9880 C.3       9 GLL5        0.0000 
     61 CA         17.9330   12.1830   26.4750 C.3       6 GLP5        0.0000 
     62 CA         15.9865   12.4895   23.6925 C.3       3 GLC5        0.0000 
     63 CA         14.2930   11.6130   22.7840 C.3       9 GLL5        0.0000 
     64 CA         17.6800   13.3660   24.6010 C.3       6 GLP5        0.0000 
     65 CA         12.0685   10.8505   20.3925 C.3       3 GLC5        0.0000 
     66 CA         13.9400   10.4350   20.4970 C.3       9 GLL5        0.0000 
     67 CA         10.1970   11.2660   20.2880 C.3       6 GLP5        0.0000 
     68 CA         15.8265   10.5210   21.4140 C.3       3 GLC5        0.0000 
     69 CA         17.7130   10.6070   22.3310 C.3       6 GLP5        0.0000 
     70 CA         16.3865    9.6185   18.3200 C.3       3 GLC5        0.0000 
     71 CA         14.6800   10.5990   19.1330 C.3       9 GLL5        0.0000 
     72 CA         18.0930    8.6380   17.5070 C.3       6 GLP5        0.0000 
     73 CA         16.5560   10.8805   20.1165 C.3       3 GLC5        0.0000 
     74 CA         18.4320   11.1620   21.1000 C.3       6 GLP5        0.0000 
     75 O          12.9880    9.1165   18.3125 O.2       1 ALC1        0.0000 
     76 O          14.2490    9.5390   18.2840 O.2       7 ALL1        0.0000 
     77 O          11.7270    8.6940   18.3410 O.2       4 ALP1        0.0000 
     78 CA         16.0335   13.4960   17.7280 C.3       3 GLC5        0.0000 
     79 CA         14.7760   13.2270   19.4040 C.3       9 GLL5        0.0000 
     80 CA         17.2910   13.7650   16.0520 C.3       6 GLP5        0.0000 
     81 CA         14.7205   14.7830   18.3085 C.3       3 GLC5        0.0000 
     82 CA         14.6650   16.3390   17.2130 C.3       6 GLP5        0.0000 
     83 CA         16.0560   14.6990   20.1450 C.3       3 GLC5        0.0000 
     84 CA         17.3360   16.1710   20.8860 C.3       6 GLP5        0.0000 
     85 N          16.7675   13.7660   18.5315 N.am      2 SEC2        0.0000 
     86 N          16.1710   13.2360   19.7370 N.am      8 SEL2        0.0000 
     87 N          17.3640   14.2960   17.3260 N.am      5 SEP2        0.0000 
     88 O          16.6320   14.1550   20.7415 O.2       1 ALC1        0.0000 
     89 O          16.1710   13.2360   19.7370 O.2       7 ALL1        0.0000 
     90 O          17.0930   15.0740   21.7460 O.2       4 ALP1        0.0000 
     91 CA         14.2380   14.3025   17.2310 C.3       3 GLC5        0.0000 
     92 CA         13.8110   12.2660   17.2490 C.3       9 GLL5        0.0000 
     93 CA         11.4855   11.4025   15.4925 C.3       3 GLC5        0.0000 
     94 CA         13.3480   11.4400   16.2190 C.3       9 GLL5        0.0000 
     95 CA          9.6230   11.3650   14.7660 C.3       6 GLP5        0.0000 
     96 CA         13.2408   10.9688   29.1202 C.3       3 GLC5        0.0000 
     97 CA         13.4170   11.2910   30.9370 C.3       6 GLP5        0.0000 
     98 CA         12.0503    5.5675   30.0592 C.3       3 GLC5        0.0000 
     99 CA         12.8610    6.7820   28.4110 C.3       9 GLL5        0.0000 
    100 CA          6.0595    5.7332   28.7713 C.3       3 GLC5        0.0000 
    101 CA          8.3160    5.1630   28.4760 C.3       9 GLL5        0.0000 
    102 CA          4.2530    5.7350   29.3340 C.3       6 GLP5        0.0000 
    103 CA          7.8590    7.1128   29.6938 C.3       3 GLC5        0.0000 
    104 CA         10.0640    5.1064   29.7601 C.3       3 GLC5        0.0000 
    105 CA          9.5643    5.3389   25.2004 C.3       3 GLC5        0.0000 
    106 CA         10.4930    5.6410   27.1700 C.3       9 GLL5        0.0000 
    107 CA         12.4942    7.9065   30.1298 C.3       3 GLC5        0.0000 
    108 CA         13.0540    8.9860   31.8300 C.3       6 GLP5        0.0000 
    109 CA         16.0465   10.5083   23.3090 C.3       3 GLC5        0.0000 
    110 CA         12.3782   11.5233   22.9290 C.3       3 GLC5        0.0000 
    111 CA         14.3900   10.4680   23.5860 C.3       9 GLL5        0.0000 
    112 CA         10.4150   12.0060   22.6730 C.3       6 GLP5        0.0000 
    113 CA         15.9522   11.1320   22.2130 C.3       3 GLC5        0.0000 
    114 CA         12.2308   12.2030   21.8722 C.3       3 GLC5        0.0000 
    115 CA         14.0900   11.7010   21.4060 C.3       9 GLL5        0.0000 
    116 CA         14.3895    8.5495   20.4565 C.3       3 GLC5        0.0000 
    117 CA         15.7940   11.8588   17.3545 C.3       3 GLC5        0.0000 
    118 CA         17.0520   12.4060   15.8850 C.3       6 GLP5        0.0000 
    119 CA         12.6007   13.9355   19.4973 C.3       3 GLC5        0.0000 
    120 CA         10.8120   14.7080   18.9240 C.3       6 GLP5        0.0000 
    121 CA         14.0373   14.8430   20.6478 C.3       3 GLC5        0.0000 
    122 CA         14.0030   13.0990   20.7370 C.3       9 GLL5        0.0000 
    123 CA         13.6850   16.5230   21.2250 C.3       6 GLP5        0.0000 
    124 CA         12.4567   13.4265   18.4030 C.3       3 GLC5        0.0000 
    125 CA         14.3920   12.0240   18.5150 C.3       9 GLL5        0.0000 
    126 CA         15.3157   12.1295   16.3095 C.3       3 GLC5        0.0000 
@<TRIPOS>BOND
@<TRIPOS>SUBSTRUCTURE
     1 ALC1       75 GROUP        1 X    ALC  0     ROOT ALC X 1
     2 SEC2       34 GROUP        1 X    SEC  0     **** SEC X 2
     3 GLC5        1 GROUP        1 X    GLC  0     **** GLC X 6
     4 ALP1       77 GROUP        1 Y    ALP  0     ROOT ALP Y 8
     5 SEP2       36 GROUP        1 Y    SEP  0     **** SEP Y 9
     6 GLP5        3 GROUP        1 Y    GLP  0     **** GLP Y 13
     7 ALL1       76 GROUP        1 Z    ALL  0     ROOT ALL Z 15
     8 SEL2       35 GROUP        1 Z    SEL  0     **** SEL Z 16
     9 GLL5        2 GROUP        1 Z    GLL  0     **** GLL Z 20
@<TRIPOS>SET

