#    Name: 3vt5_YI2_1_ligand
#    Modification time : Tue Mar 25 01:32:57 2014

@<TRIPOS>MOLECULE
3vt5_YI2_1_ligand
   77    79     1     0     0
SMALL
NO_CHARGES


@<TRIPOS>ATOM
      1 C12        13.0440    9.9250   27.6190 C.3       1 YI2500      0.0000 
      2 C13        13.1170    8.7980   26.5330 C.3       1 YI2500      0.0000 
      3 C14        14.4600    8.9770   25.7630 C.3       1 YI2500      0.0000 
      4 C15        14.5730    7.6700   24.9820 C.3       1 YI2500      0.0000 
      5 C16        14.2550    6.7310   26.1640 C.2       1 YI2500      0.0000 
      6 C21        13.3640    5.3380   28.6180 C.3       1 YI2500      0.0000 
      7 C23        10.4930    5.6410   27.1700 C.3       1 YI2500      0.0000 
      8 C24         9.4350    4.5840   27.5430 C.3       1 YI2500      0.0000 
      9 C29         7.4160    6.3000   27.9410 C.3       1 YI2500      0.0000 
     10 C27         8.3160    5.1630   28.4760 C.3       1 YI2500      0.0000 
     11 C26         8.8970    3.9110   26.2530 C.3       1 YI2500      0.0000 
     12 C28         7.9720    2.6910   26.4340 C.3       1 YI2500      0.0000 
     13 O03        10.1720    3.6110   28.3020 O.3       1 YI2500      0.0000 
     14 S22        11.0080    6.8720   28.4480 S.3       1 YI2500      0.0000 
     15 C20        12.8610    6.7820   28.4110 C.3       1 YI2500      0.0000 
     16 C17        13.4250    7.3710   27.0510 C.2       1 YI2500      0.0000 
     17 C18        11.7590    8.7380   25.7260 C.3       1 YI2500      0.0000 
     18 C11        13.0850   11.3680   26.9880 C.3       1 YI2500      0.0000 
     19 C09        14.2240   11.5590   25.9650 C.3       1 YI2500      0.0000 
     20 C08        14.3700   10.3510   24.9880 C.2       1 YI2500      0.0000 
     21 C07        14.3900   10.4680   23.5860 C.2       1 YI2500      0.0000 
     22 C06        14.2930   11.6130   22.7840 C.2       1 YI2500      0.0000 
     23 C05        14.0900   11.7010   21.4060 C.2       1 YI2500      0.0000 
     24 C10        13.9400   10.4350   20.4970 C.3       1 YI2500      0.0000 
     25 C01        14.6800   10.5990   19.1330 C.3       1 YI2500      0.0000 
     26 O01        14.2490    9.5390   18.2840 O.3       1 YI2500      0.0000 
     27 C04        14.0030   13.0990   20.7370 C.3       1 YI2500      0.0000 
     28 C03        14.7760   13.2270   19.4040 C.3       1 YI2500      0.0000 
     29 O02        16.1710   13.2360   19.7370 O.3       1 YI2500      0.0000 
     30 C02        14.3920   12.0240   18.5150 C.2       1 YI2500      0.0000 
     31 C30        13.8110   12.2660   17.2490 C.2       1 YI2500      0.0000 
     32 C31        13.3480   11.4400   16.2190 C.3       1 YI2500      0.0000 
     33 O04        12.7910   12.2590   15.1830 O.3       1 YI2500      0.0000 
     34 H          13.8871    9.8184   28.2950 H         1 YI2500      0.0000 
     35 H          12.1190    9.8172   28.1774 H         1 YI2500      0.0000 
     36 H          15.2213    9.0299   26.5124 H         1 YI2500      0.0000 
     37 H          15.5464    7.5207   24.6723 H         1 YI2500      0.0000 
     38 H          13.8212    7.6076   24.2772 H         1 YI2500      0.0000 
     39 H          14.6192    5.8700   26.1873 H         1 YI2500      0.0000 
     40 H          10.1742    6.2983   26.3517 H         1 YI2500      0.0000 
     41 H          11.4586    5.2025   26.8896 H         1 YI2500      0.0000 
     42 H           8.8065    5.5117   29.4186 H         1 YI2500      0.0000 
     43 H           7.6631    4.3117   28.7919 H         1 YI2500      0.0000 
     44 H           9.7669    3.6072   25.6304 H         1 YI2500      0.0000 
     45 H           8.3571    4.6803   25.6585 H         1 YI2500      0.0000 
     46 H          13.1379    7.4139   29.2230 H         1 YI2500      0.0000 
     47 H          13.2014   12.0909   27.8002 H         1 YI2500      0.0000 
     48 H          12.1240   11.5530   26.5002 H         1 YI2500      0.0000 
     49 H          15.1682   11.6899   26.4984 H         1 YI2500      0.0000 
     50 H          14.0321   12.4595   25.3772 H         1 YI2500      0.0000 
     51 H          14.4972    9.5248   23.0439 H         1 YI2500      0.0000 
     52 H          14.3894   12.5621   23.3092 H         1 YI2500      0.0000 
     53 H          12.8836   10.2643   20.3073 H         1 YI2500      0.0000 
     54 H          14.3526    9.5773   21.0217 H         1 YI2500      0.0000 
     55 H          15.7385   10.5400   19.3407 H         1 YI2500      0.0000 
     56 H          14.3879   13.8504   21.4439 H         1 YI2500      0.0000 
     57 H          12.9429   13.3359   20.5566 H         1 YI2500      0.0000 
     58 H          14.4618   14.1254   18.9333 H         1 YI2500      0.0000 
     59 H          13.6984   13.3629   17.0253 H         1 YI2500      0.0000 
     60 H          12.5805   10.7350   16.5894 H         1 YI2500      0.0000 
     61 H          14.1674   10.8228   15.8056 H         1 YI2500      0.0000 
     62 H          14.3624    5.2859   28.5966 H         1 YI2500      0.0000 
     63 H          13.0698    4.9648   29.4979 H         1 YI2500      0.0000 
     64 H          13.0230    4.7207   27.9090 H         1 YI2500      0.0000 
     65 H           7.9481    7.1098   27.6938 H         1 YI2500      0.0000 
     66 H           6.9108    6.0208   27.1244 H         1 YI2500      0.0000 
     67 H           6.7403    6.5891   28.6191 H         1 YI2500      0.0000 
     68 H           8.4276    1.9492   26.9261 H         1 YI2500      0.0000 
     69 H           7.1481    2.9231   26.9510 H         1 YI2500      0.0000 
     70 H           7.6718    2.3190   25.5557 H         1 YI2500      0.0000 
     71 H          11.5621    9.6035   25.2654 H         1 YI2500      0.0000 
     72 H          11.7766    8.0285   25.0215 H         1 YI2500      0.0000 
     73 H          10.9811    8.5397   26.3223 H         1 YI2500      0.0000 
     74 H          11.1076    3.9626   28.3341 H         1 YI2500      0.0000 
     75 H          13.2707    9.4422   18.4673 H         1 YI2500      0.0000 
     76 H          16.3292   14.1262   20.1642 H         1 YI2500      0.0000 
     77 H          13.5481   12.8338   14.8725 H         1 YI2500      0.0000 
@<TRIPOS>BOND
     1    2    1 1    
     2   18    1 1    
     3   34    1 1    
     4   35    1 1    
     5    3    2 1    
     6   16    2 1    
     7   17    2 1    
     8    4    3 1    
     9   20    3 1    
    10   36    3 1    
    11    5    4 1    
    12   37    4 1    
    13   38    4 1    
    14   16    5 2    
    15   39    5 1    
    16   15    6 1    
    17   62    6 1    
    18   63    6 1    
    19   64    6 1    
    20    8    7 1    
    21   14    7 1    
    22   40    7 1    
    23   41    7 1    
    24   10    8 1    
    25   11    8 1    
    26   13    8 1    
    27   10    9 1    
    28   65    9 1    
    29   66    9 1    
    30   67    9 1    
    31   42   10 1    
    32   43   10 1    
    33   12   11 1    
    34   44   11 1    
    35   45   11 1    
    36   68   12 1    
    37   69   12 1    
    38   70   12 1    
    39   74   13 1    
    40   15   14 1    
    41   16   15 1    
    42   46   15 1    
    43   71   17 1    
    44   72   17 1    
    45   73   17 1    
    46   19   18 1    
    47   47   18 1    
    48   48   18 1    
    49   20   19 1    
    50   49   19 1    
    51   50   19 1    
    52   21   20 2    
    53   22   21 1    
    54   51   21 1    
    55   23   22 2    
    56   52   22 1    
    57   24   23 1    
    58   27   23 1    
    59   25   24 1    
    60   53   24 1    
    61   54   24 1    
    62   26   25 1    
    63   30   25 1    
    64   55   25 1    
    65   75   26 1    
    66   28   27 1    
    67   56   27 1    
    68   57   27 1    
    69   29   28 1    
    70   30   28 1    
    71   58   28 1    
    72   76   29 1    
    73   31   30 2    
    74   32   31 1    
    75   59   31 1    
    76   33   32 1    
    77   60   32 1    
    78   61   32 1    
    79   77   33 1    
@<TRIPOS>SUBSTRUCTURE
     1 YI2500      1 GROUP   
@<TRIPOS>SET

