#    Name: 3gwf_FAD_1_INTS_M
#    Modification time : Tue Mar 25 13:09:42 2014

@<TRIPOS>MOLECULE
3gwf_FAD_1_INTS_M
  114     0     9     0     0
SMALL
NO_CHARGES


@<TRIPOS>ATOM
      1 N         -14.8080   -5.1435   20.1095 N.am      2 SEC2        0.0000 
      2 N         -15.4890   -4.1130   20.6290 N.am      8 SEL2        0.0000 
      3 N         -14.1270   -6.1740   19.5900 N.am      5 SEP2        0.0000 
      4 CA        -19.0800   -3.0980   18.4950 C.3       3 GLC5        0.0000 
      5 CA        -19.0640   -4.8890   19.5090 C.3       9 GLL5        0.0000 
      6 CA        -19.0960   -1.3070   17.4810 C.3       6 GLP5        0.0000 
      7 CA        -20.9850   -6.5825   20.7100 C.3       3 GLC5        0.0000 
      8 CA        -19.5470   -6.3250   19.4690 C.3       9 GLL5        0.0000 
      9 CA        -22.4230   -6.8400   21.9510 C.3       6 GLP5        0.0000 
     10 CA        -17.1420   -8.2460   17.6685 C.3       3 GLC5        0.0000 
     11 CA        -18.7580   -7.2080   18.4930 C.3       9 GLL5        0.0000 
     12 CA        -15.5260   -9.2840   16.8440 C.3       6 GLP5        0.0000 
     13 N         -17.4210   -9.1175   18.0550 N.am      2 SEC2        0.0000 
     14 N         -18.1170   -8.2690   19.1790 N.am      8 SEL2        0.0000 
     15 N         -16.7250   -9.9660   16.9310 N.am      5 SEP2        0.0000 
     16 O         -19.2105   -9.4655   19.2390 O.2       1 ALC1        0.0000 
     17 O         -18.1170   -8.2690   19.1790 O.2       7 ALL1        0.0000 
     18 O         -20.3040  -10.6620   19.2990 O.2       4 ALP1        0.0000 
     19 O         -18.9505   -8.8455   20.0885 O.2       1 ALC1        0.0000 
     20 O         -19.7840   -9.4220   20.9980 O.2       4 ALP1        0.0000 
     21 CA        -20.6825   -8.8865   15.9680 C.3       3 GLC5        0.0000 
     22 CA        -19.8140   -7.7590   17.5520 C.3       9 GLL5        0.0000 
     23 CA        -21.5510  -10.0140   14.3840 C.3       6 GLP5        0.0000 
     24 N         -18.1790   -9.5510   17.1070 N.am      2 SEC2        0.0000 
     25 N         -19.6330   -9.1360   17.2830 N.am      8 SEL2        0.0000 
     26 O         -19.9685   -9.8990   18.2910 O.2       1 ALC1        0.0000 
     27 O         -19.6330   -9.1360   17.2830 O.2       7 ALL1        0.0000 
     28 CA        -21.7660   -7.1730   20.1410 C.3       3 GLC5        0.0000 
     29 CA        -21.1090   -7.5060   18.3310 C.3       9 GLL5        0.0000 
     30 CA        -24.4970   -5.8030   17.2360 C.3       3 GLC5        0.0000 
     31 CA        -24.2500   -7.7280   16.5310 C.3       9 GLL5        0.0000 
     32 CA        -24.7440   -3.8780   17.9410 C.3       6 GLP5        0.0000 
     33 CA        -24.2355  -10.0810   15.9620 C.3       3 GLC5        0.0000 
     34 CA        -25.4520   -8.4040   16.3370 C.3       9 GLL5        0.0000 
     35 CA        -23.0190  -11.7580   15.5870 C.3       6 GLP5        0.0000 
     36 CA        -25.9480  -10.0175   15.2210 C.3       3 GLC5        0.0000 
     37 CA        -26.4440  -11.6310   14.1050 C.3       6 GLP5        0.0000 
     38 CA        -27.5015   -8.8720   17.0925 C.3       3 GLC5        0.0000 
     39 CA        -29.5510   -9.3400   17.8480 C.3       6 GLP5        0.0000 
     40 CA        -26.8845   -6.8630   15.7275 C.3       3 GLC5        0.0000 
     41 CA        -28.3170   -5.3220   15.1180 C.3       6 GLP5        0.0000 
     42 O         -27.6950   -8.6380   15.1615 O.2       1 ALC1        0.0000 
     43 O         -26.3130   -7.9930   15.4110 O.2       7 ALL1        0.0000 
     44 O         -29.0770   -9.2830   14.9120 O.2       4 ALP1        0.0000 
     45 N         -26.9590  -10.3340   17.0090 N.am      2 SEC2        0.0000 
     46 N         -25.7490   -9.4970   17.1220 N.am      8 SEL2        0.0000 
     47 N         -28.1690  -11.1710   16.8960 N.am      5 SEP2        0.0000 
     48 CA        -25.6600   -8.4100   18.8055 C.3       3 GLC5        0.0000 
     49 CA        -24.8560   -9.9370   18.0750 C.3       9 GLL5        0.0000 
     50 CA        -26.4640   -6.8830   19.5360 C.3       6 GLP5        0.0000 
     51 CA        -25.8605  -10.4680   20.0035 C.3       3 GLC5        0.0000 
     52 CA        -26.8650  -10.9990   21.9320 C.3       6 GLP5        0.0000 
     53 CA        -23.7515  -10.7305   19.4185 C.3       3 GLC5        0.0000 
     54 CA        -22.6470  -11.5240   20.7620 C.3       6 GLP5        0.0000 
     55 CA        -23.9375  -10.8475   16.8310 C.3       3 GLC5        0.0000 
     56 CA        -25.7025  -11.4095   17.1945 C.3       3 GLC5        0.0000 
     57 CA        -26.5490  -12.8820   16.3140 C.3       6 GLP5        0.0000 
     58 N         -23.0055  -10.7910   18.3825 N.am      2 SEC2        0.0000 
     59 N         -23.6710   -9.2700   18.2580 N.am      8 SEL2        0.0000 
     60 N         -22.3400  -12.3120   18.5070 N.am      5 SEP2        0.0000 
     61 N         -10.5835    5.0630   23.3835 N.am      2 SEC2        0.0000 
     62 N          -9.8710    4.3600   22.5590 N.am      8 SEL2        0.0000 
     63 N         -11.2960    5.7660   24.2080 N.am      5 SEP2        0.0000 
     64 O          -7.1550    3.9890   23.1280 O.2       1 ALC1        0.0000 
     65 O          -7.9170    3.3540   22.2290 O.2       7 ALL1        0.0000 
     66 O          -6.3930    4.6240   24.0270 O.2       4 ALP1        0.0000 
     67 N          -4.7875    2.2605   21.3420 N.am      2 SEC2        0.0000 
     68 N          -6.0140    2.2460   21.8130 N.am      8 SEL2        0.0000 
     69 N          -3.5610    2.2750   20.8710 N.am      5 SEP2        0.0000 
     70 N          -4.9160    3.0380   22.3890 N.am      2 SEC2        0.0000 
     71 N          -3.8180    3.8300   22.9650 N.am      5 SEP2        0.0000 
     72 CA         -6.6850   -2.9850   18.6555 C.3       3 GLC5        0.0000 
     73 CA         -6.5480   -2.8990   16.6550 C.3       9 GLL5        0.0000 
     74 CA         -6.8220   -3.0710   20.6560 C.3       6 GLP5        0.0000 
     75 CA         -5.4665   -3.9560   15.2915 C.3       3 GLC5        0.0000 
     76 CA         -4.3850   -5.0130   13.9280 C.3       6 GLP5        0.0000 
     77 CA         -6.7545   -1.4135   15.4535 C.3       3 GLC5        0.0000 
     78 CA         -6.9610    0.0720   14.2520 C.3       6 GLP5        0.0000 
     79 CA        -10.7735   -3.1955   17.6350 C.3       3 GLC5        0.0000 
     80 CA         -9.4050   -2.6580   15.9640 C.3       9 GLL5        0.0000 
     81 CA        -12.1420   -3.7330   19.3060 C.3       6 GLP5        0.0000 
     82 CA         -8.1830   -1.2930   15.1080 C.3       3 GLC5        0.0000 
     83 CA        -10.8555   -2.2790   18.4975 C.3       3 GLC5        0.0000 
     84 CA         -9.5690   -0.8250   17.6890 C.3       9 GLL5        0.0000 
     85 CA        -12.3090    2.7890   19.7745 C.3       3 GLC5        0.0000 
     86 CA        -11.2510    1.1490   19.0980 C.3       9 GLL5        0.0000 
     87 CA        -13.3670    4.4290   20.4510 C.3       6 GLP5        0.0000 
     88 CA        -12.1085   -1.8225   19.5755 C.3       3 GLC5        0.0000 
     89 CA        -12.0750    0.0880   19.8450 C.3       9 GLL5        0.0000 
     90 CA        -13.0235    2.5010   20.8165 C.3       3 GLC5        0.0000 
     91 CA        -12.6800    0.5730   21.1820 C.3       9 GLL5        0.0000 
     92 N         -10.7960    0.1110   22.4850 N.am      2 SEC2        0.0000 
     93 N         -11.6600    1.0240   22.0420 N.am      8 SEL2        0.0000 
     94 N          -9.9320   -0.8020   22.9280 N.am      5 SEP2        0.0000 
     95 CA        -13.1835   -1.3305   23.6985 C.3       3 GLC5        0.0000 
     96 CA        -13.4990   -0.4880   21.9450 C.3       9 GLL5        0.0000 
     97 CA        -12.8680   -2.1730   25.4520 C.3       6 GLP5        0.0000 
     98 CA        -12.8205   -2.1105   20.6255 C.3       3 GLC5        0.0000 
     99 N         -11.4565   -2.6515   22.1885 N.am      2 SEC2        0.0000 
    100 N         -12.9050   -1.7750   21.9220 N.am      8 SEL2        0.0000 
    101 N         -10.0080   -3.5280   22.4550 N.am      5 SEP2        0.0000 
    102 N         -18.0655   -2.2215   24.3000 N.am      2 SEC2        0.0000 
    103 N         -17.9060   -2.4410   22.8300 N.am      8 SEL2        0.0000 
    104 N         -18.2250   -2.0020   25.7700 N.am      5 SEP2        0.0000 
    105 CA        -20.8438   -4.3325   18.9555 C.3       3 GLC5        0.0000 
    106 CA        -22.3820   -3.0580   18.4220 C.3       6 GLP5        0.0000 
    107 CA        -17.3953   -7.1487   19.9485 C.3       3 GLC5        0.0000 
    108 CA        -15.6380   -7.5310   20.9160 C.3       6 GLP5        0.0000 
    109 CA        -22.6810   -8.9865   15.6995 C.3       3 GLC5        0.0000 
    110 CA        -25.2877   -7.5055   18.2512 C.3       3 GLC5        0.0000 
    111 CA        -23.3720   -8.1900   17.4990 C.3       9 GLL5        0.0000 
    112 CA        -15.1553    0.4912   23.2067 C.3       3 GLC5        0.0000 
    113 CA        -14.9020   -0.5930   21.3720 C.3       9 GLL5        0.0000 
    114 CA        -16.1100    1.5230   24.7550 C.3       6 GLP5        0.0000 
@<TRIPOS>BOND
@<TRIPOS>SUBSTRUCTURE
     1 ALC1       16 GROUP        1 X    ALC  0     ROOT ALC X 1
     2 SEC2        1 GROUP        1 X    SEC  0     **** SEC X 2
     3 GLC5        4 GROUP        1 X    GLC  0     **** GLC X 6
     4 ALP1       18 GROUP        1 Y    ALP  0     ROOT ALP Y 8
     5 SEP2        3 GROUP        1 Y    SEP  0     **** SEP Y 9
     6 GLP5        6 GROUP        1 Y    GLP  0     **** GLP Y 13
     7 ALL1       17 GROUP        1 Z    ALL  0     ROOT ALL Z 15
     8 SEL2        2 GROUP        1 Z    SEL  0     **** SEL Z 16
     9 GLL5        5 GROUP        1 Z    GLL  0     **** GLL Z 20
@<TRIPOS>SET

