#    Name: 3gwf_FAD_1_ligand
#    Modification time : Tue Mar 25 13:09:42 2014

@<TRIPOS>MOLECULE
3gwf_FAD_1_ligand
   84    89     1     0     0
SMALL
NO_CHARGES


@<TRIPOS>ATOM
      1 PA        -16.7500   -3.7190   19.9030 P.3       1 FAD541      0.0000 
      2 O1A       -16.4850   -3.4750   18.4500 O.co2     1 FAD541      0.0000 
      3 O2A       -15.4890   -4.1130   20.6290 O.co2     1 FAD541      0.0000 
      4 O5B       -17.8450   -4.8480   20.2110 O.3       1 FAD541      0.0000 
      5 C5B       -19.0640   -4.8890   19.5090 C.3       1 FAD541      0.0000 
      6 C4B       -19.5470   -6.3250   19.4690 C.3       1 FAD541      0.0000 
      7 O4B       -20.8810   -6.3020   19.0110 O.3       1 FAD541      0.0000 
      8 C3B       -18.7580   -7.2080   18.4930 C.3       1 FAD541      0.0000 
      9 O3B       -18.1170   -8.2690   19.1790 O.3       1 FAD541      0.0000 
     10 C2B       -19.8140   -7.7590   17.5520 C.3       1 FAD541      0.0000 
     11 O2B       -19.6330   -9.1360   17.2830 O.3       1 FAD541      0.0000 
     12 C1B       -21.1090   -7.5060   18.3310 C.3       1 FAD541      0.0000 
     13 N9A       -22.2770   -7.3650   17.4590 N.pl3     1 FAD541      0.0000 
     14 C8A       -22.4870   -6.3990   16.4920 C.2       1 FAD541      0.0000 
     15 N7A       -23.6940   -6.6440   15.9330 N.2       1 FAD541      0.0000 
     16 C5A       -24.2500   -7.7280   16.5310 C.ar      1 FAD541      0.0000 
     17 C6A       -25.4520   -8.4040   16.3370 C.ar      1 FAD541      0.0000 
     18 N6A       -26.3130   -7.9930   15.4110 N.pl3     1 FAD541      0.0000 
     19 N1A       -25.7490   -9.4970   17.1220 N.ar      1 FAD541      0.0000 
     20 C2A       -24.8560   -9.9370   18.0750 C.ar      1 FAD541      0.0000 
     21 N3A       -23.6710   -9.2700   18.2580 N.ar      1 FAD541      0.0000 
     22 C4A       -23.3720   -8.1900   17.4990 C.ar      1 FAD541      0.0000 
     23 N1         -9.8670    2.7280   20.9900 N.2       1 FAD541      0.0000 
     24 C2         -9.2460    3.5130   21.9460 C.2       1 FAD541      0.0000 
     25 O2         -9.8710    4.3600   22.5590 O.2       1 FAD541      0.0000 
     26 N3         -7.9170    3.3540   22.2290 N.am      1 FAD541      0.0000 
     27 C4         -7.2040    2.3950   21.5570 C.2       1 FAD541      0.0000 
     28 O4         -6.0140    2.2460   21.8130 O.2       1 FAD541      0.0000 
     29 C4X        -7.8040    1.6110   20.5850 C.2       1 FAD541      0.0000 
     30 N5         -7.0560    0.6670   19.9160 N.2       1 FAD541      0.0000 
     31 C5X        -7.6590   -0.1340   18.9650 C.ar      1 FAD541      0.0000 
     32 C6         -6.8780   -1.0700   18.3070 C.ar      1 FAD541      0.0000 
     33 C7         -7.4290   -1.8920   17.3340 C.ar      1 FAD541      0.0000 
     34 C7M        -6.5480   -2.8990   16.6550 C.3       1 FAD541      0.0000 
     35 C8         -8.7840   -1.7750   17.0180 C.ar      1 FAD541      0.0000 
     36 C8M        -9.4050   -2.6580   15.9640 C.3       1 FAD541      0.0000 
     37 C9         -9.5690   -0.8250   17.6890 C.ar      1 FAD541      0.0000 
     38 C9A        -9.0170    0.0040   18.6680 C.ar      1 FAD541      0.0000 
     39 N10        -9.7770    0.9560   19.3460 N.pl3     1 FAD541      0.0000 
     40 C10        -9.1560    1.7620   20.3020 C.2       1 FAD541      0.0000 
     41 C1'       -11.2510    1.1490   19.0980 C.3       1 FAD541      0.0000 
     42 C2'       -12.0750    0.0880   19.8450 C.3       1 FAD541      0.0000 
     43 O2'       -13.0890   -0.3470   18.9640 O.3       1 FAD541      0.0000 
     44 C3'       -12.6800    0.5730   21.1820 C.3       1 FAD541      0.0000 
     45 O3'       -11.6600    1.0240   22.0420 O.3       1 FAD541      0.0000 
     46 C4'       -13.4990   -0.4880   21.9450 C.3       1 FAD541      0.0000 
     47 O4'       -12.9050   -1.7750   21.9220 O.3       1 FAD541      0.0000 
     48 C5'       -14.9020   -0.5930   21.3720 C.3       1 FAD541      0.0000 
     49 O5'       -15.7240   -1.4170   22.1750 O.3       1 FAD541      0.0000 
     50 P         -17.2640   -1.5790   21.7840 P.3       1 FAD541      0.0000 
     51 O1P       -17.9060   -2.4410   22.8300 O.co2     1 FAD541      0.0000 
     52 O2P       -17.9140   -0.2290   21.6360 O.co2     1 FAD541      0.0000 
     53 O3P       -17.4120   -2.3170   20.3610 O.3       1 FAD541      0.0000 
     54 H         -18.9591   -4.5415   18.4761 H         1 FAD541      0.0000 
     55 H         -19.8407   -4.2873   19.9920 H         1 FAD541      0.0000 
     56 H         -19.4835   -6.7507   20.4476 H         1 FAD541      0.0000 
     57 H         -18.1017   -6.5904   17.9413 H         1 FAD541      0.0000 
     58 H         -19.8385   -7.1415   16.6846 H         1 FAD541      0.0000 
     59 H         -21.2362   -8.3175   19.0206 H         1 FAD541      0.0000 
     60 H         -21.8819   -5.6977   16.2734 H         1 FAD541      0.0000 
     61 H         -27.1737   -8.4989   15.3549 H         1 FAD541      0.0000 
     62 H         -26.0221   -7.2150   14.8542 H         1 FAD541      0.0000 
     63 H         -25.0803  -10.7656   18.6477 H         1 FAD541      0.0000 
     64 H          -7.4583    3.9445   22.9352 H         1 FAD541      0.0000 
     65 H          -5.8750   -1.1579   18.5422 H         1 FAD541      0.0000 
     66 H         -10.5708   -0.7397   17.4530 H         1 FAD541      0.0000 
     67 H         -11.4616    1.0682   18.0314 H         1 FAD541      0.0000 
     68 H         -11.5590    2.1367   19.4417 H         1 FAD541      0.0000 
     69 H         -11.3961   -0.7448   20.0697 H         1 FAD541      0.0000 
     70 H         -13.3650    1.4019   20.9528 H         1 FAD541      0.0000 
     71 H         -13.6065   -0.1323   22.9792 H         1 FAD541      0.0000 
     72 H         -14.8132   -0.9820   20.3414 H         1 FAD541      0.0000 
     73 H         -15.3059    0.4323   21.2884 H         1 FAD541      0.0000 
     74 H          -5.7856   -2.4630   16.1769 H         1 FAD541      0.0000 
     75 H          -6.1533   -3.5466   17.3068 H         1 FAD541      0.0000 
     76 H          -7.0509   -3.4352   15.9771 H         1 FAD541      0.0000 
     77 H          -8.9688   -2.5353   15.0726 H         1 FAD541      0.0000 
     78 H          -9.3263   -3.6271   16.1979 H         1 FAD541      0.0000 
     79 H         -10.3785   -2.4638   15.8432 H         1 FAD541      0.0000 
     80 H         -18.7892   -8.5888   19.8468 H         1 FAD541      0.0000 
     81 H         -19.9360   -9.6038   18.1133 H         1 FAD541      0.0000 
     82 H         -13.6449    0.4654   18.7882 H         1 FAD541      0.0000 
     83 H         -11.1738    1.7256   21.5211 H         1 FAD541      0.0000 
     84 H         -13.5611   -2.3710   22.3850 H         1 FAD541      0.0000 
@<TRIPOS>BOND
     1    2    1 ar   
     2    3    1 ar   
     3    4    1 1    
     4   53    1 1    
     5    5    4 1    
     6    6    5 1    
     7   54    5 1    
     8   55    5 1    
     9    7    6 1    
    10    8    6 1    
    11   56    6 1    
    12   12    7 1    
    13    9    8 1    
    14   10    8 1    
    15   57    8 1    
    16   80    9 1    
    17   11   10 1    
    18   12   10 1    
    19   58   10 1    
    20   81   11 1    
    21   13   12 1    
    22   59   12 1    
    23   14   13 1    
    24   22   13 1    
    25   15   14 2    
    26   60   14 1    
    27   16   15 1    
    28   17   16 ar   
    29   22   16 ar   
    30   18   17 1    
    31   19   17 ar   
    32   61   18 1    
    33   62   18 1    
    34   20   19 ar   
    35   21   20 ar   
    36   63   20 1    
    37   22   21 ar   
    38   24   23 1    
    39   40   23 2    
    40   25   24 2    
    41   26   24 am   
    42   27   26 am   
    43   64   26 1    
    44   28   27 2    
    45   29   27 1    
    46   30   29 2    
    47   40   29 1    
    48   31   30 1    
    49   32   31 ar   
    50   38   31 ar   
    51   33   32 ar   
    52   65   32 1    
    53   34   33 1    
    54   35   33 ar   
    55   74   34 1    
    56   75   34 1    
    57   76   34 1    
    58   36   35 1    
    59   37   35 ar   
    60   77   36 1    
    61   78   36 1    
    62   79   36 1    
    63   38   37 ar   
    64   66   37 1    
    65   39   38 1    
    66   40   39 1    
    67   41   39 1    
    68   42   41 1    
    69   67   41 1    
    70   68   41 1    
    71   43   42 1    
    72   44   42 1    
    73   69   42 1    
    74   82   43 1    
    75   45   44 1    
    76   46   44 1    
    77   70   44 1    
    78   83   45 1    
    79   47   46 1    
    80   48   46 1    
    81   71   46 1    
    82   84   47 1    
    83   49   48 1    
    84   72   48 1    
    85   73   48 1    
    86   50   49 1    
    87   51   50 ar   
    88   52   50 ar   
    89   53   50 1    
@<TRIPOS>SUBSTRUCTURE
     1 FAD541      1 GROUP   
@<TRIPOS>SET

