#    Name: 3pd5_TSB_1_INTS_M
#    Modification time : Tue Mar 25 06:18:07 2014

@<TRIPOS>MOLECULE
3pd5_TSB_1_INTS_M
   61     0     9     0     0
SMALL
NO_CHARGES


@<TRIPOS>ATOM
      1 O          29.5960   10.1970   -3.2910 O.2       1 ALC1        0.0000 
      2 O          29.9450   10.2740   -1.9470 O.2       7 ALL1        0.0000 
      3 O          29.2470   10.1200   -4.6350 O.2       4 ALP1        0.0000 
      4 O          29.0185   11.3200   -1.3295 O.2       1 ALC1        0.0000 
      5 O          28.0920   12.3660   -0.7120 O.2       4 ALP1        0.0000 
      6 CA         28.3115    7.0565   -5.1575 C.3       3 GLC5        0.0000 
      7 CA         26.9430    6.9270   -3.7220 C.3       9 GLL5        0.0000 
      8 CA         29.6800    7.1860   -6.5930 C.3       6 GLP5        0.0000 
      9 CA         27.1150    7.2610   -5.9370 C.3       3 GLC5        0.0000 
     10 CA         25.6510    6.6420   -4.4920 C.3       9 GLL5        0.0000 
     11 CA         28.5790    7.8800   -7.3820 C.3       6 GLP5        0.0000 
     12 CA         25.1455    7.4045   -6.1665 C.3       3 GLC5        0.0000 
     13 CA         24.6400    8.1670   -7.8410 C.3       6 GLP5        0.0000 
     14 CA         25.0865    4.4795   -2.1935 C.3       3 GLC5        0.0000 
     15 CA         24.7330    5.7110   -3.7010 C.3       9 GLL5        0.0000 
     16 CA         25.4400    3.2480   -0.6860 C.3       6 GLP5        0.0000 
     17 CA         22.0860    4.2715   -5.4265 C.3       3 GLC5        0.0000 
     18 CA         23.8590    5.2080   -4.8470 C.3       9 GLL5        0.0000 
     19 CA         20.3130    3.3350   -6.0060 C.3       6 GLP5        0.0000 
     20 CA         24.0005    3.7810   -6.4800 C.3       3 GLC5        0.0000 
     21 CA         24.1420    2.3540   -8.1130 C.3       6 GLP5        0.0000 
     22 N          23.2740    6.7675   -6.6755 N.am      2 SEC2        0.0000 
     23 N          23.0350    6.2710   -5.3330 N.am      8 SEL2        0.0000 
     24 N          23.5130    7.2640   -8.0180 N.am      5 SEP2        0.0000 
     25 CA         26.4405    5.8935   -7.1085 C.3       3 GLC5        0.0000 
     26 CA         24.9580    4.8920   -5.8630 C.3       9 GLL5        0.0000 
     27 CA         27.9230    6.8950   -8.3540 C.3       6 GLP5        0.0000 
     28 CA         25.2140    3.7810   -7.1355 C.3       3 GLC5        0.0000 
     29 CA         25.4700    2.6700   -8.4080 C.3       6 GLP5        0.0000 
     30 CA         25.4065   -1.6745   -5.0805 C.3       3 GLC5        0.0000 
     31 CA         25.8750    0.3440   -4.4140 C.3       9 GLL5        0.0000 
     32 CA         24.9380   -3.6930   -5.7470 C.3       6 GLP5        0.0000 
     33 CA         26.5930   -0.2675   -2.5010 C.3       3 GLC5        0.0000 
     34 CA         27.3110   -0.8790   -0.5880 C.3       6 GLP5        0.0000 
     35 O          26.9135   -1.9340   -3.9025 O.2       1 ALC1        0.0000 
     36 O          26.8330   -0.5660   -4.2610 O.2       7 ALL1        0.0000 
     37 O          26.9940   -3.3020   -3.5440 O.2       4 ALP1        0.0000 
     38 O          28.3450   -0.7450   -4.9655 O.2       1 ALC1        0.0000 
     39 O          29.8570   -0.9240   -5.6700 O.2       4 ALP1        0.0000 
     40 N          24.3955   -1.4890   -3.8190 N.am      2 SEC2        0.0000 
     41 N          24.5960    0.0360   -4.1550 N.am      8 SEL2        0.0000 
     42 N          24.1950   -3.0140   -3.4830 N.am      5 SEP2        0.0000 
     43 CA         23.3005   -0.6290   -2.9395 C.3       3 GLC5        0.0000 
     44 CA         23.6350    0.9280   -4.3250 C.3       9 GLL5        0.0000 
     45 CA         22.9660   -2.1860   -1.5540 C.3       6 GLP5        0.0000 
     46 CA         21.6525    1.6945   -4.6290 C.3       3 GLC5        0.0000 
     47 CA         19.6700    2.4610   -4.9330 C.3       6 GLP5        0.0000 
     48 CA         22.2190    1.7325   -2.8230 C.3       3 GLC5        0.0000 
     49 CA         20.8030    2.5370   -1.3210 C.3       6 GLP5        0.0000 
     50 CA         24.0125    1.6130   -2.2390 C.3       3 GLC5        0.0000 
     51 CA         24.3900    2.2980   -0.1530 C.3       6 GLP5        0.0000 
     52 CA         22.4480    0.5905   -6.1370 C.3       3 GLC5        0.0000 
     53 CA         21.2610    0.2530   -7.9490 C.3       6 GLP5        0.0000 
     54 CA         25.2920    2.8895   -2.8585 C.3       3 GLC5        0.0000 
     55 CA         25.1440    2.5310   -5.0310 C.3       9 GLL5        0.0000 
     56 CA         26.3660    8.7267   -4.0160 C.3       3 GLC5        0.0000 
     57 CA         26.4350   10.6690   -3.9250 C.3       6 GLP5        0.0000 
     58 CA         24.5243    6.6085   -6.5980 C.3       3 GLC5        0.0000 
     59 CA         25.9857   -0.0307   -6.2073 C.3       3 GLC5        0.0000 
     60 CA         26.1800    1.6230   -4.8630 C.3       9 GLL5        0.0000 
     61 CA         25.9440   -1.0450   -7.7760 C.3       6 GLP5        0.0000 
@<TRIPOS>BOND
@<TRIPOS>SUBSTRUCTURE
     1 ALC1        1 GROUP        1 X    ALC  0     ROOT ALC X 1
     2 SEC2       22 GROUP        1 X    SEC  0     **** SEC X 2
     3 GLC5        6 GROUP        1 X    GLC  0     **** GLC X 6
     4 ALP1        3 GROUP        1 Y    ALP  0     ROOT ALP Y 8
     5 SEP2       24 GROUP        1 Y    SEP  0     **** SEP Y 9
     6 GLP5        8 GROUP        1 Y    GLP  0     **** GLP Y 13
     7 ALL1        2 GROUP        1 Z    ALL  0     ROOT ALL Z 15
     8 SEL2       23 GROUP        1 Z    SEL  0     **** SEL Z 16
     9 GLL5        7 GROUP        1 Z    GLL  0     **** GLL Z 20
@<TRIPOS>SET

