#    Name: 3pd5_TSB_1_ligand
#    Modification time : Tue Mar 25 06:18:07 2014

@<TRIPOS>MOLECULE
3pd5_TSB_1_ligand
   52    54     1     0     0
SMALL
NO_CHARGES


@<TRIPOS>ATOM
      1 CG2        31.8560    7.4050   -0.3270 C.3       1 TSB501      0.0000 
      2 N          29.9450   10.2740   -1.9470 N.4       1 TSB501      0.0000 
      3 CA         30.5100    8.9230   -1.8210 C.3       1 TSB501      0.0000 
      4 CB         31.2050    8.7830   -0.4650 C.3       1 TSB501      0.0000 
      5 OG1        32.1790    9.8210   -0.3160 O.3       1 TSB501      0.0000 
      6 C          29.3850    7.8910   -1.9200 C.2       1 TSB501      0.0000 
      7 O          28.3090    8.1330   -1.3750 O.2       1 TSB501      0.0000 
      8 N8         29.6040    6.7690   -2.6010 N.pl3     1 TSB501      0.0000 
      9 S1         28.4740    5.6530   -2.2240 S.o2      1 TSB501      0.0000 
     10 O1S        27.4870    5.9510   -1.1380 O.2       1 TSB501      0.0000 
     11 O2S        29.0000    4.2530   -2.3570 O.2       1 TSB501      0.0000 
     12 O5'        27.6120    5.7130   -3.3660 O.3       1 TSB501      0.0000 
     13 C5'        26.9430    6.9270   -3.7220 C.3       1 TSB501      0.0000 
     14 C4'        25.6510    6.6420   -4.4920 C.3       1 TSB501      0.0000 
     15 O4'        25.8750    5.9970   -5.7580 O.3       1 TSB501      0.0000 
     16 C3'        24.7330    5.7110   -3.7010 C.3       1 TSB501      0.0000 
     17 O3'        23.9330    6.4840   -2.8020 O.3       1 TSB501      0.0000 
     18 C2'        23.8590    5.2080   -4.8470 C.3       1 TSB501      0.0000 
     19 O2'        23.0350    6.2710   -5.3330 O.3       1 TSB501      0.0000 
     20 C1'        24.9580    4.8920   -5.8630 C.3       1 TSB501      0.0000 
     21 N9         25.6850    3.6620   -5.4740 N.pl3     1 TSB501      0.0000 
     22 C8         27.0010    3.4800   -5.5670 C.2       1 TSB501      0.0000 
     23 N7         27.3090    2.2400   -5.1970 N.2       1 TSB501      0.0000 
     24 C5         26.1800    1.6230   -4.8630 C.ar      1 TSB501      0.0000 
     25 C6         25.8750    0.3440   -4.4140 C.ar      1 TSB501      0.0000 
     26 N6         26.8330   -0.5660   -4.2610 N.pl3     1 TSB501      0.0000 
     27 N1         24.5960    0.0360   -4.1550 N.ar      1 TSB501      0.0000 
     28 C2         23.6350    0.9280   -4.3250 C.ar      1 TSB501      0.0000 
     29 N3         23.8880    2.1530   -4.7530 N.ar      1 TSB501      0.0000 
     30 C4         25.1440    2.5310   -5.0310 C.ar      1 TSB501      0.0000 
     31 H          31.2208    8.7338   -2.5949 H         1 TSB501      0.0000 
     32 H          30.4381    8.8661    0.3048 H         1 TSB501      0.0000 
     33 H          30.2476    6.5004   -3.2266 H         1 TSB501      0.0000 
     34 H          27.5753    7.5665   -4.3581 H         1 TSB501      0.0000 
     35 H          26.6763    7.5186   -2.8319 H         1 TSB501      0.0000 
     36 H          25.1139    7.5741   -4.6325 H         1 TSB501      0.0000 
     37 H          25.2679    4.9444   -3.3050 H         1 TSB501      0.0000 
     38 H          23.3867    4.3453   -4.5698 H         1 TSB501      0.0000 
     39 H          24.5425    4.8201   -6.8172 H         1 TSB501      0.0000 
     40 H          27.6447    4.1580   -5.8635 H         1 TSB501      0.0000 
     41 H          26.5409   -1.4591   -3.9189 H         1 TSB501      0.0000 
     42 H          27.7589   -0.2749   -4.5019 H         1 TSB501      0.0000 
     43 H          22.6303    0.6523   -4.1115 H         1 TSB501      0.0000 
     44 H          32.5424    7.2458   -1.0366 H         1 TSB501      0.0000 
     45 H          32.3157    7.2980    0.5546 H         1 TSB501      0.0000 
     46 H          31.1840    6.6679   -0.3985 H         1 TSB501      0.0000 
     47 H          29.4821   10.4026   -2.8240 H         1 TSB501      0.0000 
     48 H          29.2737   10.4642   -1.2306 H         1 TSB501      0.0000 
     49 H          30.6509   10.9793   -1.8819 H         1 TSB501      0.0000 
     50 H          32.7564   10.3984    0.2614 H         1 TSB501      0.0000 
     51 H          23.4889    5.8128   -2.2085 H         1 TSB501      0.0000 
     52 H          22.8575    6.8464   -4.5347 H         1 TSB501      0.0000 
@<TRIPOS>BOND
     1    4    1 1    
     2   44    1 1    
     3   45    1 1    
     4   46    1 1    
     5    3    2 1    
     6   47    2 1    
     7   48    2 1    
     8   49    2 1    
     9    4    3 1    
    10    6    3 1    
    11   31    3 1    
    12    5    4 1    
    13   32    4 1    
    14   50    5 1    
    15    7    6 2    
    16    8    6 1    
    17    9    8 1    
    18   33    8 1    
    19   10    9 2    
    20   11    9 2    
    21   12    9 1    
    22   13   12 1    
    23   14   13 1    
    24   34   13 1    
    25   35   13 1    
    26   15   14 1    
    27   16   14 1    
    28   36   14 1    
    29   20   15 1    
    30   17   16 1    
    31   18   16 1    
    32   37   16 1    
    33   51   17 1    
    34   19   18 1    
    35   20   18 1    
    36   38   18 1    
    37   52   19 1    
    38   21   20 1    
    39   39   20 1    
    40   22   21 1    
    41   30   21 1    
    42   23   22 2    
    43   40   22 1    
    44   24   23 1    
    45   25   24 ar   
    46   30   24 ar   
    47   26   25 1    
    48   27   25 ar   
    49   41   26 1    
    50   42   26 1    
    51   28   27 ar   
    52   29   28 ar   
    53   43   28 1    
    54   30   29 ar   
@<TRIPOS>SUBSTRUCTURE
     1 TSB501      1 GROUP   
@<TRIPOS>SET

