#    Name: 2irz_I02_1_INTS_M
#    Modification time : Tue Mar 25 18:33:35 2014

@<TRIPOS>MOLECULE
2irz_I02_1_INTS_M
   97     0    12     0     0
SMALL
NO_CHARGES


@<TRIPOS>ATOM
      1 CA         30.4770   43.4500    5.6850 C.3       4 GLC5        0.0000 
      2 CA         32.2250   44.6480    6.2300 C.3      12 GLL5        0.0000 
      3 CA         28.7290   42.2520    5.1400 C.3       8 GLP5        0.0000 
      4 CA         30.3215   47.0595    4.9310 C.3       4 GLC5        0.0000 
      5 CA         32.3750   47.0640    5.2950 C.3      12 GLL5        0.0000 
      6 CA         28.2680   47.0550    4.5670 C.3       8 GLP5        0.0000 
      7 CA         32.5920   49.5745    6.8500 C.3       4 GLC5        0.0000 
      8 CA         32.0100   47.5830    6.5810 C.3      12 GLL5        0.0000 
      9 CA         33.1740   51.5660    7.1190 C.3       8 GLP5        0.0000 
     10 CA         30.1310   48.0110    5.8975 C.3       4 GLC5        0.0000 
     11 CA         28.2520   48.4390    5.2140 C.3       8 GLP5        0.0000 
     12 O          31.6425   43.1590    3.8455 O.2       1 ALC1        0.0000 
     13 O          31.8570   44.4580    3.1170 O.2       9 ALL1        0.0000 
     14 O          31.4280   41.8600    4.5740 O.2       5 ALP1        0.0000 
     15 CA         28.5815   45.7865    2.7985 C.3       4 GLC5        0.0000 
     16 CA         28.8950   44.5180    1.0300 C.3      12 GLL5        0.0000 
     17 CA         24.6720   42.7390    0.5120 C.3       4 GLC5        0.0000 
     18 CA         25.9560   43.5940   -1.0430 C.3      12 GLL5        0.0000 
     19 CA         23.3880   41.8840    2.0670 C.3       8 GLP5        0.0000 
     20 N          31.5775   45.1795    0.1390 N.am      2 SEC2        0.0000 
     21 N          31.3600   46.0200    1.5280 N.am     10 SEL2        0.0000 
     22 N          31.7950   44.3390   -1.2500 N.am      6 SEP2        0.0000 
     23 N          25.9880   45.5400    3.8265 N.am      2 SEC2        0.0000 
     24 N          26.3340   45.2180    2.3670 N.am     10 SEL2        0.0000 
     25 N          25.6420   45.8620    5.2860 N.am      6 SEP2        0.0000 
     26 CA         34.9780   45.2130    5.5140 C.3       4 GLC5        0.0000 
     27 CA         34.1930   44.3400    3.8480 C.3      12 GLL5        0.0000 
     28 CA         35.7630   46.0860    7.1800 C.3       8 GLP5        0.0000 
     29 CA         35.5040   43.5620    5.2825 C.3       4 GLC5        0.0000 
     30 CA         36.8150   42.7840    6.7170 C.3       8 GLP5        0.0000 
     31 CA         36.0265   43.9460    3.1860 C.3       4 GLC5        0.0000 
     32 CA         37.8600   43.5520    2.5240 C.3       8 GLP5        0.0000 
     33 CA         32.1825   47.0880   10.2720 C.3       4 GLC5        0.0000 
     34 CA         31.4540   47.1260    8.8350 C.3      12 GLL5        0.0000 
     35 CA         32.9110   47.0500   11.7090 C.3       8 GLP5        0.0000 
     36 OD1        32.4055   38.3655    4.8085 O.co2     3 ASC3        0.0000 
     37 OD1        31.4040   38.5060    4.0150 O.co2    11 ASL3        0.0000 
     38 OD1        33.4070   38.2250    5.6020 O.co2     7 ASP3        0.0000 
     39 OD1        32.2590   37.2795    4.8595 O.co2     3 ASC3        0.0000 
     40 OD1        33.1140   36.0530    5.7040 O.co2     7 ASP3        0.0000 
     41 OD1        30.7265   38.2250    5.4745 O.co2     3 ASC3        0.0000 
     42 OD1        30.0490   37.9440    6.9340 O.co2     7 ASP3        0.0000 
     43 OD1        30.0935   38.3420    4.5890 O.co2     3 ASC3        0.0000 
     44 OD1        28.7830   38.1780    5.1630 O.co2     7 ASP3        0.0000 
     45 O          32.4055   38.3655    4.8085 O.2       1 ALC1        0.0000 
     46 O          31.4040   38.5060    4.0150 O.2       9 ALL1        0.0000 
     47 O          33.4070   38.2250    5.6020 O.2       5 ALP1        0.0000 
     48 O          32.2590   37.2795    4.8595 O.2       1 ALC1        0.0000 
     49 O          33.1140   36.0530    5.7040 O.2       5 ALP1        0.0000 
     50 O          30.7265   38.2250    5.4745 O.2       1 ALC1        0.0000 
     51 O          30.0490   37.9440    6.9340 O.2       5 ALP1        0.0000 
     52 O          30.0935   38.3420    4.5890 O.2       1 ALC1        0.0000 
     53 O          28.7830   38.1780    5.1630 O.2       5 ALP1        0.0000 
     54 O          31.4160   40.1830    4.2945 O.2       1 ALC1        0.0000 
     55 CA         30.4255   35.4890    4.8115 C.3       4 GLC5        0.0000 
     56 CA         30.9600   36.3270    2.9700 C.3      12 GLL5        0.0000 
     57 CA         29.8910   34.6510    6.6530 C.3       8 GLP5        0.0000 
     58 CA         32.1610   34.7130    3.5430 C.3       4 GLC5        0.0000 
     59 CA         33.3620   33.0990    4.1160 C.3       8 GLP5        0.0000 
     60 CA         31.9215   41.3215   -1.3420 C.3       4 GLC5        0.0000 
     61 CA         33.6140   40.8970   -0.0570 C.3      12 GLL5        0.0000 
     62 CA         30.2290   41.7460   -2.6270 C.3       8 GLP5        0.0000 
     63 CA         32.3435   38.0880   -0.7425 C.3       4 GLC5        0.0000 
     64 CA         33.1030   39.6010    0.3350 C.3      12 GLL5        0.0000 
     65 CA         31.5840   36.5750   -1.8200 C.3       8 GLP5        0.0000 
     66 CA         34.0618   45.6103    6.4350 C.3       4 GLC5        0.0000 
     67 CA         31.9773   42.8430    6.7538 C.3       4 GLC5        0.0000 
     68 CA         31.9190   40.7720    6.6400 C.3       8 GLP5        0.0000 
     69 CA         33.9778   46.7048    6.5590 C.3       4 GLC5        0.0000 
     70 CA         33.7244   48.0604    5.4554 C.3       4 GLC5        0.0000 
     71 CA         35.2260   49.1580    5.0090 C.3       8 GLP5        0.0000 
     72 CA         33.7848   45.9940    7.3747 C.3       4 GLC5        0.0000 
     73 CA         31.7670   46.6240    7.6340 C.3      12 GLL5        0.0000 
     74 CA         29.9666   45.8640    6.4404 C.3       4 GLC5        0.0000 
     75 CA         28.0320   45.9590    5.6300 C.3       8 GLP5        0.0000 
     76 CA         34.5270   45.5420    2.3610 C.3       4 GLC5        0.0000 
     77 CA         32.9070   45.2060    3.7920 C.3      12 GLL5        0.0000 
     78 CA         35.5040   46.3110    0.9020 C.3       8 GLP5        0.0000 
     79 CA         30.0242   41.9415   -0.6755 C.3       4 GLC5        0.0000 
     80 CA         30.3300   42.5780    1.5080 C.3      12 GLL5        0.0000 
     81 CA         29.2504   42.3716    3.2094 C.3       4 GLC5        0.0000 
     82 CA         29.3090   41.6960    1.0440 C.3      12 GLL5        0.0000 
     83 CA         29.0915   42.3335   -1.0208 C.3       4 GLC5        0.0000 
     84 CA         28.0700   42.2110    0.5890 C.3      12 GLL5        0.0000 
     85 CA         27.1225   42.5850    2.4848 C.3       4 GLC5        0.0000 
     86 CA         26.2910   42.2490    4.3840 C.3       8 GLP5        0.0000 
     87 CA         30.2016   46.2915    9.0166 C.3       4 GLC5        0.0000 
     88 CA         31.8460   45.1800    7.5050 C.3      12 GLL5        0.0000 
     89 CA         28.7730   46.0690    9.8310 C.3       8 GLP5        0.0000 
     90 CA         32.3757   36.1958    1.1346 C.3       4 GLC5        0.0000 
     91 CA         32.8420   37.7650    2.1020 C.3      12 GLL5        0.0000 
     92 CA         32.7290   34.9860   -0.2100 C.3       8 GLP5        0.0000 
     93 CA         35.4082   40.7120    3.7890 C.3       4 GLC5        0.0000 
     94 CA         34.2080   39.8700    2.6390 C.3      12 GLL5        0.0000 
     95 CA         36.3560   40.9030    5.1390 C.3       8 GLP5        0.0000 
     96 CA         35.0311   38.0528    3.0294 C.3       4 GLC5        0.0000 
     97 CA         36.3970   36.9520    3.7920 C.3       8 GLP5        0.0000 
@<TRIPOS>BOND
@<TRIPOS>SUBSTRUCTURE
     1 ALC1       12 GROUP        1 X    ALC  0     ROOT ALC X 1
     2 SEC2       20 GROUP        1 X    SEC  0     **** SEC X 2
     3 ASC3       36 GROUP        1 X    ASC  0     **** ASC X 3
     4 GLC5        1 GROUP        1 X    GLC  0     **** GLC X 6
     5 ALP1       14 GROUP        1 Y    ALP  0     ROOT ALP Y 8
     6 SEP2       22 GROUP        1 Y    SEP  0     **** SEP Y 9
     7 ASP3       38 GROUP        1 Y    ASP  0     **** ASP Y 10
     8 GLP5        3 GROUP        1 Y    GLP  0     **** GLP Y 13
     9 ALL1       13 GROUP        1 Z    ALL  0     ROOT ALL Z 15
    10 SEL2       21 GROUP        1 Z    SEL  0     **** SEL Z 16
    11 ASL3       37 GROUP        1 Z    ASL  0     **** ASL Z 17
    12 GLL5        2 GROUP        1 Z    GLL  0     **** GLL Z 20
@<TRIPOS>SET

