#    Name: 2irz_I02_1_ligand
#    Modification time : Tue Mar 25 18:33:35 2014

@<TRIPOS>MOLECULE
2irz_I02_1_ligand
   70    73     1     0     0
SMALL
NO_CHARGES


@<TRIPOS>ATOM
      1 C1         32.2250   44.6480    6.2300 C.ar      1 I02386      0.0000 
      2 C2         32.4960   45.6210    5.1500 C.ar      1 I02386      0.0000 
      3 C3         32.3750   47.0640    5.2950 C.ar      1 I02386      0.0000 
      4 C4         32.0100   47.5830    6.5810 C.ar      1 I02386      0.0000 
      5 C5         31.7670   46.6240    7.6340 C.ar      1 I02386      0.0000 
      6 C6         31.8460   45.1800    7.5050 C.ar      1 I02386      0.0000 
      7 C7         32.9070   45.2060    3.7920 C.3       1 I02386      0.0000 
      8 N1         31.8570   44.4580    3.1170 N.am      1 I02386      0.0000 
      9 C8         31.1640   44.9150    2.0360 C.2       1 I02386      0.0000 
     10 C9         30.1390   43.9950    1.5190 C.ar      1 I02386      0.0000 
     11 C10        30.3300   42.5780    1.5080 C.ar      1 I02386      0.0000 
     12 C11        29.3090   41.6960    1.0440 C.ar      1 I02386      0.0000 
     13 C12        28.0700   42.2110    0.5890 C.ar      1 I02386      0.0000 
     14 C13        27.8380   43.6310    0.5820 C.ar      1 I02386      0.0000 
     15 C14        28.8950   44.5180    1.0300 C.ar      1 I02386      0.0000 
     16 N2         26.5780   44.0580    0.2130 N.pl3     1 I02386      0.0000 
     17 S1         25.7940   45.1940    1.0460 S.o2      1 I02386      0.0000 
     18 C15        26.1490   46.8010    0.3190 C.3       1 I02386      0.0000 
     19 C16        25.9560   43.5940   -1.0430 C.3       1 I02386      0.0000 
     20 O1         31.3600   46.0200    1.5280 O.2       1 I02386      0.0000 
     21 O2         26.3340   45.2180    2.3670 O.2       1 I02386      0.0000 
     22 O3         24.4010   44.8890    0.8770 O.2       1 I02386      0.0000 
     23 C17        34.1930   44.3400    3.8480 C.3       1 I02386      0.0000 
     24 F1         31.4540   47.1260    8.8350 F         1 I02386      0.0000 
     25 C20        31.4460   37.7650    2.7430 C.3       1 I02386      0.0000 
     26 N3         31.4040   38.5060    4.0150 N.4       1 I02386      0.0000 
     27 C21        30.9600   36.3270    2.9700 C.3       1 I02386      0.0000 
     28 C22        32.8420   37.7650    2.1020 C.3       1 I02386      0.0000 
     29 C23        34.4060   41.6550    0.8990 C.ar      1 I02386      0.0000 
     30 C24        33.6140   40.8970   -0.0570 C.ar      1 I02386      0.0000 
     31 C25        33.1030   39.6010    0.3350 C.ar      1 I02386      0.0000 
     32 C26        33.4030   39.1090    1.6870 C.ar      1 I02386      0.0000 
     33 C27        34.2080   39.8700    2.6390 C.ar      1 I02386      0.0000 
     34 C28        34.7130   41.1720    2.2390 C.ar      1 I02386      0.0000 
     35 N35        29.6650   38.1620    0.8410 N.2       1 I02386      0.0000 
     36 N4         29.1190   39.2390    0.4160 N.2       1 I02386      0.0000 
     37 C29        29.5970   40.2920    1.1370 C.2       1 I02386      0.0000 
     38 O4         30.4020   39.7890    2.0290 O.3       1 I02386      0.0000 
     39 C30        30.4790   38.4870    1.8630 C.2       1 I02386      0.0000 
     40 H          32.3074   43.6815    6.0587 H         1 I02386      0.0000 
     41 H          32.5426   47.6646    4.5186 H         1 I02386      0.0000 
     42 H          31.9266   48.5571    6.7456 H         1 I02386      0.0000 
     43 H          31.6429   44.5900    8.2782 H         1 I02386      0.0000 
     44 H          33.1588   46.0932    3.2049 H         1 I02386      0.0000 
     45 H          31.6466   43.5069    3.5173 H         1 I02386      0.0000 
     46 H          31.2185   42.1894    1.8403 H         1 I02386      0.0000 
     47 H          27.3379   41.5846    0.2651 H         1 I02386      0.0000 
     48 H          28.7459   45.5239    0.9944 H         1 I02386      0.0000 
     49 H          32.8159   37.0921    1.2124 H         1 I02386      0.0000 
     50 H          33.5512   37.2796    2.8137 H         1 I02386      0.0000 
     51 H          34.7673   42.5768    0.6164 H         1 I02386      0.0000 
     52 H          33.4281   41.2669   -0.9662 H         1 I02386      0.0000 
     53 H          32.5603   39.0482   -0.2887 H         1 I02386      0.0000 
     54 H          34.4047   39.5007    3.5431 H         1 I02386      0.0000 
     55 H          35.2569   41.7235    2.8650 H         1 I02386      0.0000 
     56 H          27.1269   47.0091    0.3375 H         1 I02386      0.0000 
     57 H          25.8571   46.8491   -0.6362 H         1 I02386      0.0000 
     58 H          25.6828   47.5399    0.8055 H         1 I02386      0.0000 
     59 H          26.5035   43.8418   -1.8423 H         1 I02386      0.0000 
     60 H          25.8477   42.6000   -1.0587 H         1 I02386      0.0000 
     61 H          25.0474   43.9900   -1.1759 H         1 I02386      0.0000 
     62 H          34.9593   44.8388    4.2530 H         1 I02386      0.0000 
     63 H          34.0603   43.5129    4.3941 H         1 I02386      0.0000 
     64 H          34.4830   44.0464    2.9371 H         1 I02386      0.0000 
     65 H          31.7179   39.4492    3.9059 H         1 I02386      0.0000 
     66 H          30.4781   38.5468    4.3906 H         1 I02386      0.0000 
     67 H          31.9842   38.0826    4.7108 H         1 I02386      0.0000 
     68 H          30.9740   35.7925    2.1250 H         1 I02386      0.0000 
     69 H          31.5307   35.8424    3.6329 H         1 I02386      0.0000 
     70 H          30.0224   36.3022    3.3170 H         1 I02386      0.0000 
@<TRIPOS>BOND
     1    2    1 ar   
     2    6    1 ar   
     3   40    1 1    
     4    3    2 ar   
     5    7    2 1    
     6    4    3 ar   
     7   41    3 1    
     8    5    4 ar   
     9   42    4 1    
    10    6    5 ar   
    11   24    5 1    
    12   43    6 1    
    13    8    7 1    
    14   23    7 1    
    15   44    7 1    
    16    9    8 am   
    17   45    8 1    
    18   10    9 1    
    19   20    9 2    
    20   11   10 ar   
    21   15   10 ar   
    22   12   11 ar   
    23   46   11 1    
    24   13   12 ar   
    25   37   12 1    
    26   14   13 ar   
    27   47   13 1    
    28   15   14 ar   
    29   16   14 1    
    30   48   15 1    
    31   17   16 1    
    32   19   16 1    
    33   18   17 1    
    34   21   17 2    
    35   22   17 2    
    36   56   18 1    
    37   57   18 1    
    38   58   18 1    
    39   59   19 1    
    40   60   19 1    
    41   61   19 1    
    42   62   23 1    
    43   63   23 1    
    44   64   23 1    
    45   26   25 1    
    46   27   25 1    
    47   28   25 1    
    48   39   25 1    
    49   65   26 1    
    50   66   26 1    
    51   67   26 1    
    52   68   27 1    
    53   69   27 1    
    54   70   27 1    
    55   32   28 1    
    56   49   28 1    
    57   50   28 1    
    58   30   29 ar   
    59   34   29 ar   
    60   51   29 1    
    61   31   30 ar   
    62   52   30 1    
    63   32   31 ar   
    64   53   31 1    
    65   33   32 ar   
    66   34   33 ar   
    67   54   33 1    
    68   55   34 1    
    69   36   35 1    
    70   39   35 2    
    71   37   36 2    
    72   38   37 1    
    73   39   38 1    
@<TRIPOS>SUBSTRUCTURE
     1 I02386      1 GROUP   
@<TRIPOS>SET

