#    Name: 3rk9_09Z_1_INTS_M
#    Modification time : Tue Mar 25 11:35:59 2014

@<TRIPOS>MOLECULE
3rk9_09Z_1_INTS_M
   53     0     9     0     0
SMALL
NO_CHARGES


@<TRIPOS>ATOM
      1 CA        -36.0140  -85.2250  -84.3185 C.3       3 GLC5        0.0000 
      2 CA        -35.8730  -83.6810  -83.0850 C.3       9 GLL5        0.0000 
      3 CA        -36.1550  -86.7690  -85.5520 C.3       6 GLP5        0.0000 
      4 CA        -37.0935  -84.4035  -84.5745 C.3       3 GLC5        0.0000 
      5 CA        -36.7130  -82.4730  -83.5880 C.3       9 GLL5        0.0000 
      6 CA        -37.4740  -86.3340  -85.5610 C.3       6 GLP5        0.0000 
      7 CA        -33.8415  -81.2640  -84.0420 C.3       3 GLC5        0.0000 
      8 CA        -35.8030  -81.2220  -83.6980 C.3       9 GLL5        0.0000 
      9 CA        -31.8800  -81.3060  -84.3860 C.3       6 GLP5        0.0000 
     10 CA        -35.0700  -79.3785  -83.2350 C.3       3 GLC5        0.0000 
     11 CA        -34.3370  -77.5350  -82.7720 C.3       6 GLP5        0.0000 
     12 CA        -36.1575  -79.5510  -84.7305 C.3       3 GLC5        0.0000 
     13 CA        -36.5120  -77.8800  -85.7630 C.3       6 GLP5        0.0000 
     14 O         -36.2350  -83.1990  -85.8065 O.2       1 ALC1        0.0000 
     15 O         -37.2740  -82.8280  -84.9060 O.2       7 ALL1        0.0000 
     16 O         -35.1960  -83.5700  -86.7070 O.2       4 ALP1        0.0000 
     17 N         -37.5425  -82.9390  -87.9165 N.am      2 SEC2        0.0000 
     18 N         -38.6380  -82.2620  -86.7830 N.am      8 SEL2        0.0000 
     19 N         -36.4470  -83.6160  -89.0500 N.am      5 SEP2        0.0000 
     20 CA        -39.3470  -81.9380  -83.1045 C.3       3 GLC5        0.0000 
     21 CA        -39.2630  -80.9690  -84.6400 C.3       9 GLL5        0.0000 
     22 CA        -39.4310  -82.9070  -81.5690 C.3       6 GLP5        0.0000 
     23 CA        -38.5490  -79.8540  -86.1995 C.3       3 GLC5        0.0000 
     24 CA        -37.8350  -78.7390  -87.7590 C.3       6 GLP5        0.0000 
     25 O         -40.0370  -82.1835  -89.5200 O.2       1 ALC1        0.0000 
     26 O         -40.1420  -81.4320  -88.3100 O.2       7 ALL1        0.0000 
     27 O         -39.9320  -82.9350  -90.7300 O.2       4 ALP1        0.0000 
     28 CA        -42.4815  -80.7090  -84.1835 C.3       3 GLC5        0.0000 
     29 CA        -41.7070  -78.8200  -85.0940 C.3       9 GLL5        0.0000 
     30 CA        -43.2560  -82.5980  -83.2730 C.3       6 GLP5        0.0000 
     31 CA        -38.6190  -77.9910  -85.0270 C.3       3 GLC5        0.0000 
     32 CA        -40.7260  -78.1020  -84.2910 C.3       9 GLL5        0.0000 
     33 CA        -43.4650  -78.9350  -82.4600 C.3       3 GLC5        0.0000 
     34 CA        -42.5200  -77.0910  -82.9320 C.3       9 GLL5        0.0000 
     35 CA        -44.4100  -80.7790  -81.9880 C.3       6 GLP5        0.0000 
     36 N         -44.9075  -77.3495  -83.3235 N.am      2 SEC2        0.0000 
     37 N         -43.4650  -77.7760  -83.7100 N.am      8 SEL2        0.0000 
     38 N         -46.3500  -76.9230  -82.9370 N.am      5 SEP2        0.0000 
     39 CA        -43.7610  -79.7095  -83.3890 C.3       3 GLC5        0.0000 
     40 CA        -43.1120  -78.6400  -84.7900 C.3       9 GLL5        0.0000 
     41 CA        -45.1500  -78.8230  -84.3685 C.3       3 GLC5        0.0000 
     42 CA        -47.1880  -79.0060  -83.9470 C.3       6 GLP5        0.0000 
     43 CA        -43.1795  -76.5910  -84.9390 C.3       3 GLC5        0.0000 
     44 CA        -43.2470  -74.5420  -85.0880 C.3       6 GLP5        0.0000 
     45 CA        -37.8620  -82.9920  -82.4527 C.3       3 GLC5        0.0000 
     46 CA        -40.8970  -82.5315  -86.8465 C.3       3 GLC5        0.0000 
     47 CA        -40.1190  -80.6870  -86.0820 C.3       9 GLL5        0.0000 
     48 CA        -41.9050  -83.9880  -87.0960 C.3       6 GLP5        0.0000 
     49 CA        -38.8620  -79.9070  -87.1780 C.3       3 GLC5        0.0000 
     50 CA        -39.6590  -81.4630  -87.1120 C.3       9 GLL5        0.0000 
     51 CA        -40.6158  -77.2390  -86.2837 C.3       3 GLC5        0.0000 
     52 CA        -40.0150  -76.0170  -87.8750 C.3       6 GLP5        0.0000 
     53 CA        -42.4856  -75.9614  -84.2144 C.3       3 GLC5        0.0000 
@<TRIPOS>BOND
@<TRIPOS>SUBSTRUCTURE
     1 ALC1       14 GROUP        1 X    ALC  0     ROOT ALC X 1
     2 SEC2       17 GROUP        1 X    SEC  0     **** SEC X 2
     3 GLC5        1 GROUP        1 X    GLC  0     **** GLC X 6
     4 ALP1       16 GROUP        1 Y    ALP  0     ROOT ALP Y 8
     5 SEP2       19 GROUP        1 Y    SEP  0     **** SEP Y 9
     6 GLP5        3 GROUP        1 Y    GLP  0     **** GLP Y 13
     7 ALL1       15 GROUP        1 Z    ALL  0     ROOT ALL Z 15
     8 SEL2       18 GROUP        1 Z    SEL  0     **** SEL Z 16
     9 GLL5        2 GROUP        1 Z    GLL  0     **** GLL Z 20
@<TRIPOS>SET

