#    Name: 3rk9_09Z_1_ligand
#    Modification time : Tue Mar 25 11:35:59 2014

@<TRIPOS>MOLECULE
3rk9_09Z_1_ligand
   32    33     1     0     0
SMALL
NO_CHARGES


@<TRIPOS>ATOM
      1 C1        -35.8730  -83.6810  -83.0850 C.3       1 09Z483      0.0000 
      2 C2        -36.7130  -82.4730  -83.5880 C.3       1 09Z483      0.0000 
      3 C3        -35.8030  -81.2220  -83.6980 C.3       1 09Z483      0.0000 
      4 N4        -37.2740  -82.8280  -84.9060 N.pl3     1 09Z483      0.0000 
      5 C5        -38.3130  -82.1010  -85.4720 C.2       1 09Z483      0.0000 
      6 N6        -38.6380  -82.2620  -86.7830 N.2       1 09Z483      0.0000 
      7 C7        -39.6590  -81.4630  -87.1120 C.2       1 09Z483      0.0000 
      8 C8        -40.1190  -80.6870  -86.0820 C.2       1 09Z483      0.0000 
      9 S9        -39.2630  -80.9690  -84.6400 S.3       1 09Z483      0.0000 
     10 N10       -40.1420  -81.4320  -88.3100 N.pl3     1 09Z483      0.0000 
     11 C11       -41.2510  -79.6910  -86.2060 C.2       1 09Z483      0.0000 
     12 C12       -41.7070  -78.8200  -85.0940 C.ar      1 09Z483      0.0000 
     13 C13       -40.7260  -78.1020  -84.2910 C.ar      1 09Z483      0.0000 
     14 C14       -41.1310  -77.2390  -83.2080 C.ar      1 09Z483      0.0000 
     15 C15       -42.5200  -77.0910  -82.9320 C.ar      1 09Z483      0.0000 
     16 N16       -43.4650  -77.7760  -83.7100 N.ar      1 09Z483      0.0000 
     17 C17       -43.1120  -78.6400  -84.7900 C.ar      1 09Z483      0.0000 
     18 O18       -41.8640  -79.5700  -87.4050 O.2       1 09Z483      0.0000 
     19 H         -37.4829  -82.2841  -82.8801 H         1 09Z483      0.0000 
     20 H         -36.8618  -83.6361  -85.3853 H         1 09Z483      0.0000 
     21 H         -39.7189  -82.0515  -88.9712 H         1 09Z483      0.0000 
     22 H         -40.8942  -80.7914  -88.4647 H         1 09Z483      0.0000 
     23 H         -39.7368  -78.2155  -84.5030 H         1 09Z483      0.0000 
     24 H         -40.4386  -76.7548  -82.6633 H         1 09Z483      0.0000 
     25 H         -42.8181  -76.4852  -82.1671 H         1 09Z483      0.0000 
     26 H         -43.8092  -79.1132  -85.3287 H         1 09Z483      0.0000 
     27 H         -35.1173  -83.8918  -83.7051 H         1 09Z483      0.0000 
     28 H         -35.4736  -83.5066  -82.1850 H         1 09Z483      0.0000 
     29 H         -36.4262  -84.5102  -83.0045 H         1 09Z483      0.0000 
     30 H         -35.3991  -80.9779  -82.8164 H         1 09Z483      0.0000 
     31 H         -35.0472  -81.3675  -84.3364 H         1 09Z483      0.0000 
     32 H         -36.3090  -80.4219  -84.0202 H         1 09Z483      0.0000 
@<TRIPOS>BOND
     1    2    1 1    
     2   27    1 1    
     3   28    1 1    
     4   29    1 1    
     5    3    2 1    
     6    4    2 1    
     7   19    2 1    
     8   30    3 1    
     9   31    3 1    
    10   32    3 1    
    11    5    4 1    
    12   20    4 1    
    13    6    5 2    
    14    9    5 1    
    15    7    6 1    
    16    8    7 2    
    17   10    7 1    
    18    9    8 1    
    19   11    8 1    
    20   21   10 1    
    21   22   10 1    
    22   12   11 1    
    23   18   11 2    
    24   13   12 ar   
    25   17   12 ar   
    26   14   13 ar   
    27   23   13 1    
    28   15   14 ar   
    29   24   14 1    
    30   16   15 ar   
    31   25   15 1    
    32   17   16 ar   
    33   26   17 1    
@<TRIPOS>SUBSTRUCTURE
     1 09Z483      1 GROUP   
@<TRIPOS>SET

