#    Name: 3vw2_BER_1_INTS_M
#    Modification time : Tue Mar 25 01:44:06 2014

@<TRIPOS>MOLECULE
3vw2_BER_1_INTS_M
   53     0     3     0     0
SMALL
NO_CHARGES


@<TRIPOS>ATOM
      1 CA         -0.2680   16.6280  -33.5050 C.3       1 GLC5        0.0000 
      2 CA          1.4790   16.4810  -33.9780 C.3       3 GLL5        0.0000 
      3 CA         -2.0150   16.7750  -33.0320 C.3       2 GLP5        0.0000 
      4 CA          0.7825   14.8925  -32.7220 C.3       1 GLC5        0.0000 
      5 CA          0.0860   13.3040  -31.4660 C.3       2 GLP5        0.0000 
      6 CA         -0.7850   15.8085  -34.0770 C.3       1 GLC5        0.0000 
      7 CA          0.4450   14.8420  -35.1220 C.3       3 GLL5        0.0000 
      8 CA          1.9395   11.2115  -37.7855 C.3       1 GLC5        0.0000 
      9 CA          2.4930   10.7410  -36.0260 C.3       3 GLL5        0.0000 
     10 CA          1.3860   11.6820  -39.5450 C.3       2 GLP5        0.0000 
     11 CA          0.2150   18.0780  -32.6650 C.3       1 GLC5        0.0000 
     12 CA          2.2030   17.8420  -32.1200 C.3       3 GLL5        0.0000 
     13 CA         -1.7730   18.3140  -33.2100 C.3       2 GLP5        0.0000 
     14 CA          6.3730   18.6690  -30.5560 C.3       1 GLC5        0.0000 
     15 CA          4.5680   17.7610  -31.4820 C.3       3 GLL5        0.0000 
     16 CA          8.1780   19.5770  -29.6300 C.3       2 GLP5        0.0000 
     17 CA          5.5020    8.5015  -35.8545 C.3       1 GLC5        0.0000 
     18 CA          3.9930    9.1130  -36.0330 C.3       3 GLL5        0.0000 
     19 CA          7.0110    7.8900  -35.6760 C.3       2 GLP5        0.0000 
     20 CA          3.0285    8.5980  -34.5430 C.3       1 GLC5        0.0000 
     21 CA          2.0640    8.0830  -33.0530 C.3       2 GLP5        0.0000 
     22 CA          4.5030    7.2955  -36.7370 C.3       1 GLC5        0.0000 
     23 CA          5.0130    5.4780  -37.4410 C.3       2 GLP5        0.0000 
     24 CA          2.7850    7.6700  -37.0075 C.3       1 GLC5        0.0000 
     25 CA          1.5770    6.2270  -37.9820 C.3       2 GLP5        0.0000 
     26 CA          0.6320   21.2980  -30.7595 C.3       1 GLC5        0.0000 
     27 CA          1.2570   19.9720  -31.7650 C.3       3 GLL5        0.0000 
     28 CA          0.0070   22.6240  -29.7540 C.3       2 GLP5        0.0000 
     29 CA         -0.2580   19.1430  -32.4875 C.3       1 GLC5        0.0000 
     30 CA          0.4680   19.4540  -30.1640 C.3       1 GLC5        0.0000 
     31 CA         -0.3210   18.9360  -28.5630 C.3       2 GLP5        0.0000 
     32 CA          6.3340   19.7865  -29.8750 C.3       1 GLC5        0.0000 
     33 CA          4.4900   19.9960  -30.1200 C.3       3 GLL5        0.0000 
     34 CA          5.5020   18.5390  -28.9335 C.3       1 GLC5        0.0000 
     35 CA          6.5140   17.0820  -27.7470 C.3       2 GLP5        0.0000 
     36 CA          4.4705   21.4360  -28.8465 C.3       1 GLC5        0.0000 
     37 CA          4.4510   22.8760  -27.5730 C.3       2 GLP5        0.0000 
     38 CA          3.1335   18.7445  -29.2005 C.3       1 GLC5        0.0000 
     39 CA          1.7770   17.4930  -28.2810 C.3       2 GLP5        0.0000 
     40 CA          1.3560   13.5742  -33.0530 C.3       1 GLC5        0.0000 
     41 CA          2.6150   14.5040  -34.3610 C.3       3 GLL5        0.0000 
     42 CA          0.3776   13.6534  -33.4222 C.3       1 GLC5        0.0000 
     43 CA          1.4270   12.7340  -35.5940 C.3       3 GLL5        0.0000 
     44 CA          1.1326   12.2674  -37.6586 C.3       1 GLC5        0.0000 
     45 CA          0.3600   13.5930  -35.6760 C.3       3 GLL5        0.0000 
     46 CA         -0.2034   11.5154  -34.6056 C.3       1 GLC5        0.0000 
     47 CA         -1.2860   10.1780  -33.4390 C.3       2 GLP5        0.0000 
     48 CA          4.8817   12.6058  -36.2450 C.3       1 GLC5        0.0000 
     49 CA          2.6370   13.1850  -34.9190 C.3       3 GLL5        0.0000 
     50 CA          6.3290   13.2020  -37.3820 C.3       2 GLP5        0.0000 
     51 CA          2.5720    9.5292  -34.3725 C.3       1 GLC5        0.0000 
     52 CA          3.6670   11.2100  -35.3580 C.3       3 GLL5        0.0000 
     53 CA          2.7322   17.7181  -29.9620 C.3       1 GLC5        0.0000 
@<TRIPOS>BOND
@<TRIPOS>SUBSTRUCTURE
     1 GLC5        1 GROUP        1 X    GLC  0     ROOT GLC X 6
     2 GLP5        3 GROUP        1 Y    GLP  0     ROOT GLP Y 13
     3 GLL5        2 GROUP        1 Z    GLL  0     ROOT GLL Z 20
@<TRIPOS>SET

