#    Name: 3vw2_BER_1_ligand
#    Modification time : Tue Mar 25 01:44:06 2014

@<TRIPOS>MOLECULE
3vw2_BER_1_ligand
   43    47     1     0     0
SMALL
NO_CHARGES


@<TRIPOS>ATOM
      1 C1          2.6150   14.5040  -34.3610 C.ar      1 BER301      0.0000 
      2 C2          2.6370   13.1850  -34.9190 C.ar      1 BER301      0.0000 
      3 N1          1.5430   15.2620  -34.5030 N.pl3     1 BER301      0.0000 
      4 C3          3.8780   14.8570  -33.6970 C.ar      1 BER301      0.0000 
      5 C4          1.4270   12.7340  -35.5940 C.ar      1 BER301      0.0000 
      6 C5          3.7670   12.4330  -34.7970 C.ar      1 BER301      0.0000 
      7 C6          1.4790   16.4810  -33.9780 C.ar      1 BER301      0.0000 
      8 C7          0.4450   14.8420  -35.1220 C.3       1 BER301      0.0000 
      9 C8          3.7560   16.1430  -33.0080 C.ar      1 BER301      0.0000 
     10 C9          1.3700   11.4910  -36.1430 C.ar      1 BER301      0.0000 
     11 C10         0.3600   13.5930  -35.6760 C.3       1 BER301      0.0000 
     12 C11         3.6670   11.2100  -35.3580 C.ar      1 BER301      0.0000 
     13 C12         2.6660   17.0920  -33.3260 C.ar      1 BER301      0.0000 
     14 C13         4.6860   16.4830  -32.1480 C.ar      1 BER301      0.0000 
     15 C14         2.4930   10.7410  -36.0260 C.ar      1 BER301      0.0000 
     16 O1          4.5590   10.2430  -35.3900 O.3       1 BER301      0.0000 
     17 C15         2.2030   17.8420  -32.1200 C.ar      1 BER301      0.0000 
     18 C16         4.5680   17.7610  -31.4820 C.ar      1 BER301      0.0000 
     19 O2          2.7080    9.5020  -36.4670 O.3       1 BER301      0.0000 
     20 C17         3.9930    9.1130  -36.0330 C.3       1 BER301      0.0000 
     21 C18         3.4110   18.4090  -31.4880 C.ar      1 BER301      0.0000 
     22 O3          1.4470   18.9040  -32.6500 O.3       1 BER301      0.0000 
     23 O4          3.3500   19.6890  -30.8630 O.3       1 BER301      0.0000 
     24 C19         1.2570   19.9720  -31.7650 C.3       1 BER301      0.0000 
     25 C20         4.4900   19.9960  -30.1200 C.3       1 BER301      0.0000 
     26 H           4.6508   14.3308  -33.7142 H         1 BER301      0.0000 
     27 H           4.5873   12.7622  -34.3351 H         1 BER301      0.0000 
     28 H           0.6290   17.0641  -33.9882 H         1 BER301      0.0000 
     29 H           0.1371   15.6239  -35.9457 H         1 BER301      0.0000 
     30 H          -0.4830   14.9863  -34.4131 H         1 BER301      0.0000 
     31 H           0.5402   11.1495  -36.6091 H         1 BER301      0.0000 
     32 H          -0.5858   13.0585  -35.2609 H         1 BER301      0.0000 
     33 H           0.0435   13.6941  -36.7906 H         1 BER301      0.0000 
     34 H           5.4954   15.9056  -31.9119 H         1 BER301      0.0000 
     35 H           5.4148   18.1235  -31.0174 H         1 BER301      0.0000 
     36 H           3.9299    8.2668  -35.3381 H         1 BER301      0.0000 
     37 H           4.6138    8.8030  -36.8824 H         1 BER301      0.0000 
     38 H           2.1258   20.3755  -31.4779 H         1 BER301      0.0000 
     39 H           0.7158   20.7046  -32.1778 H         1 BER301      0.0000 
     40 H           0.7782   19.6859  -30.9350 H         1 BER301      0.0000 
     41 H           5.3134   19.9995  -30.6875 H         1 BER301      0.0000 
     42 H           4.4238   20.8983  -29.6940 H         1 BER301      0.0000 
     43 H           4.6434   19.3354  -29.3851 H         1 BER301      0.0000 
@<TRIPOS>BOND
     1    2    1 1    
     2    3    1 ar   
     3    4    1 ar   
     4    5    2 ar   
     5    6    2 ar   
     6    7    3 ar   
     7    8    3 1    
     8    9    4 ar   
     9   26    4 1    
    10   10    5 ar   
    11   11    5 1    
    12   12    6 ar   
    13   27    6 1    
    14   13    7 ar   
    15   28    7 1    
    16   11    8 1    
    17   29    8 1    
    18   30    8 1    
    19   13    9 ar   
    20   14    9 ar   
    21   15   10 ar   
    22   31   10 1    
    23   32   11 1    
    24   33   11 1    
    25   15   12 ar   
    26   16   12 1    
    27   17   13 ar   
    28   18   14 ar   
    29   34   14 1    
    30   19   15 1    
    31   20   16 1    
    32   21   17 ar   
    33   22   17 1    
    34   21   18 ar   
    35   35   18 1    
    36   20   19 1    
    37   36   20 1    
    38   37   20 1    
    39   23   21 1    
    40   24   22 1    
    41   25   23 1    
    42   38   24 1    
    43   39   24 1    
    44   40   24 1    
    45   41   25 1    
    46   42   25 1    
    47   43   25 1    
@<TRIPOS>SUBSTRUCTURE
     1 BER301      1 GROUP   
@<TRIPOS>SET

