#    Name: 2eix_FAD_2_INTS_M
#    Modification time : Tue Mar 25 11:08:10 2014

@<TRIPOS>MOLECULE
2eix_FAD_2_INTS_M
  121     0    12     0     0
SMALL
NO_CHARGES


@<TRIPOS>ATOM
      1 N           0.1975  -23.2625  -17.4705 N.am      2 SEC2        0.0000 
      2 N          -0.4860  -21.9240  -18.3070 N.am     10 SEL2        0.0000 
      3 N           0.8810  -24.6010  -16.6340 N.am      6 SEP2        0.0000 
      4 CA         -1.6395  -18.7570  -18.8510 C.3       4 GLC5        0.0000 
      5 CA         -2.9530  -19.7580  -20.1870 C.3      12 GLL5        0.0000 
      6 CA         -0.3260  -17.7560  -17.5150 C.3       8 GLP5        0.0000 
      7 CA         -4.7210  -20.4835  -20.6870 C.3       4 GLC5        0.0000 
      8 CA         -6.4890  -21.2090  -21.1870 C.3       8 GLP5        0.0000 
      9 CA         -2.6810  -21.7875  -20.8860 C.3       4 GLC5        0.0000 
     10 CA         -2.4090  -23.8170  -21.5850 C.3       8 GLP5        0.0000 
     11 CA         -4.7120  -19.3410  -21.3580 C.3       4 GLC5        0.0000 
     12 CA         -2.6130  -18.8290  -21.3240 C.3      12 GLL5        0.0000 
     13 CA         -6.8110  -19.8530  -21.3920 C.3       8 GLP5        0.0000 
     14 CA         -3.9430  -20.7720  -22.3900 C.3       4 GLC5        0.0000 
     15 CA         -2.1420  -19.5610  -22.5450 C.3      12 GLL5        0.0000 
     16 CA         -5.7440  -21.9830  -22.2350 C.3       8 GLP5        0.0000 
     17 CA         -2.2755  -21.6890  -22.0650 C.3       4 GLC5        0.0000 
     18 N          -3.0705  -21.1210  -24.4340 N.am      2 SEC2        0.0000 
     19 N          -3.2840  -19.7840  -23.3700 N.am     10 SEL2        0.0000 
     20 N          -2.8570  -22.4580  -25.4980 N.am      6 SEP2        0.0000 
     21 CA          0.4205  -18.4120  -24.2500 C.3       4 GLC5        0.0000 
     22 CA         -1.1640  -18.5390  -23.1290 C.3      12 GLL5        0.0000 
     23 CA          2.0050  -18.2850  -25.3710 C.3       8 GLP5        0.0000 
     24 CA          0.6125  -17.3700  -23.6075 C.3       4 GLC5        0.0000 
     25 CA         -0.5780  -17.8220  -21.9210 C.3      12 GLL5        0.0000 
     26 CA          1.8030  -16.9180  -25.2940 C.3       8 GLP5        0.0000 
     27 CA         -0.6005  -16.5750  -20.4140 C.3       4 GLC5        0.0000 
     28 CA         -0.6230  -15.3280  -18.9070 C.3       8 GLP5        0.0000 
     29 CA          5.8745  -18.0680  -19.7505 C.3       4 GLC5        0.0000 
     30 CA          4.2390  -18.4040  -20.9190 C.3      12 GLL5        0.0000 
     31 CA          7.5100  -17.7320  -18.5820 C.3       8 GLP5        0.0000 
     32 O           6.7110  -19.6105  -20.9915 O.2       1 ALC1        0.0000 
     33 O           5.2600  -19.2940  -20.8700 O.2       9 ALL1        0.0000 
     34 O           8.1620  -19.9270  -21.1130 O.2       5 ALP1        0.0000 
     35 CA          4.5340  -17.3290  -22.7185 C.3       4 GLC5        0.0000 
     36 CA          3.4380  -16.1180  -21.2210 C.3      12 GLL5        0.0000 
     37 CA          5.6300  -18.5400  -24.2160 C.3       8 GLP5        0.0000 
     38 CA          3.7240  -15.0130  -19.6705 C.3       4 GLC5        0.0000 
     39 CA          4.0100  -13.9080  -18.1200 C.3       8 GLP5        0.0000 
     40 CA          3.5605  -17.2365  -19.4280 C.3       4 GLC5        0.0000 
     41 CA          3.6830  -18.3550  -17.6350 C.3       8 GLP5        0.0000 
     42 CA          0.6365  -16.5805  -20.1615 C.3       4 GLC5        0.0000 
     43 CA          1.8960  -17.8330  -21.4160 C.3      12 GLL5        0.0000 
     44 N         -11.1910  -24.3305  -16.6465 N.am      2 SEC2        0.0000 
     45 N         -10.5170  -24.0850  -15.3090 N.am     10 SEL2        0.0000 
     46 N         -11.8650  -24.5760  -17.9840 N.am      6 SEP2        0.0000 
     47 O         -12.3875  -25.1585  -13.7205 O.2       1 ALC1        0.0000 
     48 O         -11.3620  -24.4650  -13.1680 O.2       9 ALL1        0.0000 
     49 O         -13.4130  -25.8520  -14.2730 O.2       5 ALP1        0.0000 
     50 N         -12.6420  -23.7640  -10.2395 N.am      2 SEC2        0.0000 
     51 N         -12.0920  -24.7280  -11.0750 N.am     10 SEL2        0.0000 
     52 N         -13.1920  -22.8000   -9.4040 N.am      6 SEP2        0.0000 
     53 N         -10.3290  -24.5635   -8.9985 N.am      2 SEC2        0.0000 
     54 N         -10.0720  -23.2820  -10.0060 N.am     10 SEL2        0.0000 
     55 N         -10.5860  -25.8450   -7.9910 N.am      6 SEP2        0.0000 
     56 CA        -10.5155  -23.4220   -7.3235 C.3       4 GLC5        0.0000 
     57 CA         -8.9470  -22.2770   -8.2440 C.3      12 GLL5        0.0000 
     58 CA        -12.0840  -24.5670   -6.4030 C.3       8 GLP5        0.0000 
     59 CA         -7.0245  -22.2030   -4.8240 C.3       4 GLC5        0.0000 
     60 CA         -7.8620  -21.3030   -6.2790 C.3      12 GLL5        0.0000 
     61 CA         -6.1870  -23.1030   -3.3690 C.3       8 GLP5        0.0000 
     62 CA         -7.9140  -19.3695   -5.6285 C.3       4 GLC5        0.0000 
     63 CA         -7.9660  -17.4360   -4.9780 C.3       8 GLP5        0.0000 
     64 CA         -4.3495  -24.3825  -12.6245 C.3       4 GLC5        0.0000 
     65 CA         -5.9500  -22.9510  -12.9320 C.3      12 GLL5        0.0000 
     66 CA         -2.7490  -25.8140  -12.3170 C.3       8 GLP5        0.0000 
     67 O          -5.7415  -23.9295  -10.8875 O.2       1 ALC1        0.0000 
     68 O          -5.1790  -23.0510  -11.7460 O.2       9 ALL1        0.0000 
     69 O          -6.3040  -24.8080  -10.0290 O.2       5 ALP1        0.0000 
     70 CA         -3.1775  -23.4930  -13.9805 C.3       4 GLC5        0.0000 
     71 CA         -5.0130  -22.6950  -14.1400 C.3      12 GLL5        0.0000 
     72 CA         -1.3420  -24.2910  -13.8210 C.3       8 GLP5        0.0000 
     73 CA         -5.7410  -24.7955  -13.7995 C.3       4 GLC5        0.0000 
     74 CA         -6.4690  -26.8960  -13.4590 C.3       8 GLP5        0.0000 
     75 N          -4.0565  -19.8055  -13.6310 N.am      2 SEC2        0.0000 
     76 N          -4.5180  -21.3760  -13.9740 N.am     10 SEL2        0.0000 
     77 N          -3.5950  -18.2350  -13.2880 N.am      6 SEP2        0.0000 
     78 CA         -6.7560  -24.5740  -14.3920 C.3       4 GLC5        0.0000 
     79 CA         -5.8010  -22.8720  -15.4570 C.3      12 GLL5        0.0000 
     80 CA         -7.7110  -26.2760  -13.3270 C.3       8 GLP5        0.0000 
     81 N          -6.0065  -25.4150  -15.0330 N.am      2 SEC2        0.0000 
     82 N          -6.3440  -24.1840  -15.5220 N.am     10 SEL2        0.0000 
     83 N          -5.6690  -26.6460  -14.5440 N.am      6 SEP2        0.0000 
     84 NZ         -1.3055  -24.5005  -16.3655 N.4       3 LYC4        0.0000 
     85 NZ         -1.8610  -24.6700  -17.6280 N.4      11 LYL4        0.0000 
     86 NZ          0.5200  -24.5400  -15.3240 N.4       7 LYP4        0.0000 
     87 N          -1.3055  -24.5005  -16.3655 N.am      2 SEC2        0.0000 
     88 N          -1.8610  -24.6700  -17.6280 N.am     10 SEL2        0.0000 
     89 N          -0.7500  -24.3310  -15.1030 N.am      6 SEP2        0.0000 
     90 N          -0.4900  -24.6355  -17.1310 N.am      2 SEC2        0.0000 
     91 N          -1.8225  -26.0150  -18.1075 N.am      2 SEC2        0.0000 
     92 N          -1.7840  -27.3600  -18.5870 N.am      6 SEP2        0.0000 
     93 N          -4.3650  -26.0050  -18.7705 N.am      2 SEC2        0.0000 
     94 N          -4.0820  -24.6240  -18.8170 N.am     10 SEL2        0.0000 
     95 N          -4.6480  -27.3860  -18.7240 N.am      6 SEP2        0.0000 
     96 N          -5.1030  -25.0520  -19.6550 N.am      2 SEC2        0.0000 
     97 N          -6.1240  -25.4800  -20.4930 N.am      6 SEP2        0.0000 
     98 CA         -1.0740  -20.4465  -24.2310 C.3       4 GLC5        0.0000 
     99 CA         -0.4950  -21.8430  -25.6250 C.3       8 GLP5        0.0000 
    100 CA          4.5953  -18.5705  -22.6180 C.3       4 GLC5        0.0000 
    101 CA          2.8820  -18.7980  -21.1210 C.3      12 GLL5        0.0000 
    102 CA          3.2056  -18.2860  -19.4265 C.3       4 GLC5        0.0000 
    103 CA         -8.7085  -24.3312   -8.9067 C.3       4 GLC5        0.0000 
    104 CA         -9.0190  -22.5200   -9.6130 C.3      12 GLL5        0.0000 
    105 CA         -8.4340  -26.2640   -8.8850 C.3       8 GLP5        0.0000 
    106 CA         -6.2833  -22.6962   -7.2935 C.3       4 GLC5        0.0000 
    107 CA         -7.9230  -21.5120   -7.7390 C.3      12 GLL5        0.0000 
    108 CA         -4.6740  -23.9850   -7.5780 C.3       8 GLP5        0.0000 
    109 CA         -9.8387  -20.8044   -6.9596 C.3       4 GLC5        0.0000 
    110 CA        -11.5290  -20.0100   -6.7840 C.3       8 GLP5        0.0000 
    111 CA         -5.2760  -21.7188   -8.4322 C.3       4 GLC5        0.0000 
    112 CA         -6.9920  -20.9270   -8.5460 C.3      12 GLL5        0.0000 
    113 CA         -4.1120  -22.9330   -8.5960 C.3       8 GLP5        0.0000 
    114 CA         -5.8425  -22.2335   -9.3887 C.3       4 GLC5        0.0000 
    115 CA         -7.0670  -21.1340   -9.9040 C.3      12 GLL5        0.0000 
    116 CA         -7.9609  -19.1167   -8.8577 C.3       4 GLC5        0.0000 
    117 CA         -9.0520  -17.3410   -8.7300 C.3       8 GLP5        0.0000 
    118 CA         -7.1015  -24.3455  -13.0987 C.3       4 GLC5        0.0000 
    119 CA         -7.0340  -21.8790  -12.8090 C.3      12 GLL5        0.0000 
    120 CA         -6.5148  -21.9353  -17.5583 C.3       4 GLC5        0.0000 
    121 CA         -7.6420  -21.1060  -19.0180 C.3       8 GLP5        0.0000 
@<TRIPOS>BOND
@<TRIPOS>SUBSTRUCTURE
     1 ALC1       32 GROUP        1 X    ALC  0     ROOT ALC X 1
     2 SEC2        1 GROUP        1 X    SEC  0     **** SEC X 2
     3 LYC4       84 GROUP        1 X    LYC  0     **** LYC X 4
     4 GLC5        4 GROUP        1 X    GLC  0     **** GLC X 6
     5 ALP1       34 GROUP        1 Y    ALP  0     ROOT ALP Y 8
     6 SEP2        3 GROUP        1 Y    SEP  0     **** SEP Y 9
     7 LYP4       86 GROUP        1 Y    LYP  0     **** LYP Y 11
     8 GLP5        6 GROUP        1 Y    GLP  0     **** GLP Y 13
     9 ALL1       33 GROUP        1 Z    ALL  0     ROOT ALL Z 15
    10 SEL2        2 GROUP        1 Z    SEL  0     **** SEL Z 16
    11 LYL4       85 GROUP        1 Z    LYL  0     **** LYL Z 18
    12 GLL5        5 GROUP        1 Z    GLL  0     **** GLL Z 20
@<TRIPOS>SET

