#    Name: 2eix_FAD_2_ligand
#    Modification time : Tue Mar 25 11:08:10 2014

@<TRIPOS>MOLECULE
2eix_FAD_2_ligand
   84    89     1     0     0
SMALL
NO_CHARGES


@<TRIPOS>ATOM
      1 PA         -1.7650  -21.3290  -18.4380 P.3       1 FAD1302     0.0000 
      2 O1A        -0.4860  -21.9240  -18.3070 O.co2     1 FAD1302     0.0000 
      3 O2A        -2.2850  -20.6060  -17.2110 O.co2     1 FAD1302     0.0000 
      4 O5B        -1.8460  -20.6190  -19.9230 O.3       1 FAD1302     0.0000 
      5 C5B        -2.9530  -19.7580  -20.1870 C.3       1 FAD1302     0.0000 
      6 C4B        -2.6130  -18.8290  -21.3240 C.3       1 FAD1302     0.0000 
      7 O4B        -1.4800  -18.0950  -20.8860 O.3       1 FAD1302     0.0000 
      8 C3B        -2.1420  -19.5610  -22.5450 C.3       1 FAD1302     0.0000 
      9 O3B        -3.2840  -19.7840  -23.3700 O.3       1 FAD1302     0.0000 
     10 C2B        -1.1640  -18.5390  -23.1290 C.3       1 FAD1302     0.0000 
     11 O2B        -1.8560  -17.6070  -23.9770 O.3       1 FAD1302     0.0000 
     12 C1B        -0.5780  -17.8220  -21.9210 C.3       1 FAD1302     0.0000 
     13 N9A         0.7040  -18.4830  -21.6140 N.pl3     1 FAD1302     0.0000 
     14 C8A         0.9680  -19.8220  -21.4420 C.2       1 FAD1302     0.0000 
     15 N7A         2.2610  -20.0090  -21.1830 N.2       1 FAD1302     0.0000 
     16 C5A         2.8820  -18.7980  -21.1210 C.ar      1 FAD1302     0.0000 
     17 C6A         4.2390  -18.4040  -20.9190 C.ar      1 FAD1302     0.0000 
     18 N6A         5.2600  -19.2940  -20.8700 N.pl3     1 FAD1302     0.0000 
     19 N1A         4.4470  -17.0500  -20.9740 N.ar      1 FAD1302     0.0000 
     20 C2A         3.4380  -16.1180  -21.2210 C.ar      1 FAD1302     0.0000 
     21 N3A         2.1430  -16.5070  -21.4350 N.ar      1 FAD1302     0.0000 
     22 C4A         1.8960  -17.8330  -21.4160 C.ar      1 FAD1302     0.0000 
     23 N1         -9.3690  -23.1900  -13.6350 N.2       1 FAD1302     0.0000 
     24 C2        -10.4470  -23.9320  -14.0920 C.2       1 FAD1302     0.0000 
     25 O2        -10.5170  -24.0850  -15.3090 O.2       1 FAD1302     0.0000 
     26 N3        -11.3620  -24.4650  -13.1680 N.am      1 FAD1302     0.0000 
     27 C4        -11.2440  -24.2280  -11.8280 C.2       1 FAD1302     0.0000 
     28 O4        -12.0920  -24.7280  -11.0750 O.2       1 FAD1302     0.0000 
     29 C4X       -10.1580  -23.4880  -11.3710 C.2       1 FAD1302     0.0000 
     30 N5        -10.0720  -23.2820  -10.0060 N.2       1 FAD1302     0.0000 
     31 C5X        -9.0190  -22.5200   -9.6130 C.ar      1 FAD1302     0.0000 
     32 C6         -8.9470  -22.2770   -8.2440 C.ar      1 FAD1302     0.0000 
     33 C7         -7.9230  -21.5120   -7.7390 C.ar      1 FAD1302     0.0000 
     34 C7M        -7.8620  -21.3030   -6.2790 C.3       1 FAD1302     0.0000 
     35 C8         -6.9920  -20.9270   -8.5460 C.ar      1 FAD1302     0.0000 
     36 C8M        -5.8880  -20.0820   -7.9910 C.3       1 FAD1302     0.0000 
     37 C9         -7.0670  -21.1340   -9.9040 C.ar      1 FAD1302     0.0000 
     38 C9A        -8.0790  -21.9340  -10.4590 C.ar      1 FAD1302     0.0000 
     39 N10        -8.1510  -22.1900  -11.8260 N.pl3     1 FAD1302     0.0000 
     40 C10        -9.2210  -22.9620  -12.2590 C.2       1 FAD1302     0.0000 
     41 C1'        -7.0340  -21.8790  -12.8090 C.3       1 FAD1302     0.0000 
     42 C2'        -5.9500  -22.9510  -12.9320 C.3       1 FAD1302     0.0000 
     43 O2'        -5.1790  -23.0510  -11.7460 O.3       1 FAD1302     0.0000 
     44 C3'        -5.0130  -22.6950  -14.1400 C.3       1 FAD1302     0.0000 
     45 O3'        -4.5180  -21.3760  -13.9740 O.3       1 FAD1302     0.0000 
     46 C4'        -5.8010  -22.8720  -15.4570 C.3       1 FAD1302     0.0000 
     47 O4'        -6.3440  -24.1840  -15.5220 O.3       1 FAD1302     0.0000 
     48 C5'        -4.9740  -22.6570  -16.7400 C.3       1 FAD1302     0.0000 
     49 O5'        -3.7760  -23.4260  -16.6360 O.3       1 FAD1302     0.0000 
     50 P          -3.0940  -23.9050  -17.9860 P.3       1 FAD1302     0.0000 
     51 O1P        -1.8610  -24.6700  -17.6280 O.co2     1 FAD1302     0.0000 
     52 O2P        -4.0820  -24.6240  -18.8170 O.co2     1 FAD1302     0.0000 
     53 O3P        -2.7770  -22.5580  -18.8130 O.3       1 FAD1302     0.0000 
     54 H          -3.2068  -19.1489  -19.3095 H         1 FAD1302     0.0000 
     55 H          -3.8488  -20.3286  -20.4654 H         1 FAD1302     0.0000 
     56 H          -3.4179  -18.2021  -21.5491 H         1 FAD1302     0.0000 
     57 H          -1.6266  -20.4124  -22.2537 H         1 FAD1302     0.0000 
     58 H          -0.3882  -19.0606  -23.6251 H         1 FAD1302     0.0000 
     59 H          -0.4632  -16.8195  -22.1354 H         1 FAD1302     0.0000 
     60 H           0.2865  -20.5184  -21.5057 H         1 FAD1302     0.0000 
     61 H           5.0356  -20.2021  -20.5163 H         1 FAD1302     0.0000 
     62 H           6.1474  -18.9639  -21.1918 H         1 FAD1302     0.0000 
     63 H           3.6873  -15.1072  -21.2406 H         1 FAD1302     0.0000 
     64 H         -12.1417  -25.0517  -13.5301 H         1 FAD1302     0.0000 
     65 H          -9.6625  -22.6727   -7.6186 H         1 FAD1302     0.0000 
     66 H          -6.3726  -20.6988  -10.5371 H         1 FAD1302     0.0000 
     67 H          -6.5535  -20.9224  -12.5173 H         1 FAD1302     0.0000 
     68 H          -7.4750  -21.7057  -13.8123 H         1 FAD1302     0.0000 
     69 H          -6.4577  -23.9088  -13.1344 H         1 FAD1302     0.0000 
     70 H          -4.2341  -23.4279  -14.0967 H         1 FAD1302     0.0000 
     71 H          -6.6115  -22.1382  -15.4652 H         1 FAD1302     0.0000 
     72 H          -4.7715  -21.5903  -16.8252 H         1 FAD1302     0.0000 
     73 H          -5.5895  -22.9672  -17.5833 H         1 FAD1302     0.0000 
     74 H          -7.7725  -22.1670   -5.7836 H         1 FAD1302     0.0000 
     75 H          -7.0829  -20.7332   -6.0176 H         1 FAD1302     0.0000 
     76 H          -8.6845  -20.8510   -5.9338 H         1 FAD1302     0.0000 
     77 H          -5.3080  -20.5966   -7.3595 H         1 FAD1302     0.0000 
     78 H          -5.2932  -19.7273   -8.7124 H         1 FAD1302     0.0000 
     79 H          -6.2411  -19.2931   -7.4880 H         1 FAD1302     0.0000 
     80 H          -3.0353  -20.5581  -23.9522 H         1 FAD1302     0.0000 
     81 H          -2.7783  -17.9811  -24.0741 H         1 FAD1302     0.0000 
     82 H          -5.6649  -23.7143  -11.1768 H         1 FAD1302     0.0000 
     83 H          -3.5711  -21.4129  -14.2934 H         1 FAD1302     0.0000 
     84 H          -6.3857  -24.3986  -16.4978 H         1 FAD1302     0.0000 
@<TRIPOS>BOND
     1    2    1 ar   
     2    3    1 ar   
     3    4    1 1    
     4   53    1 1    
     5    5    4 1    
     6    6    5 1    
     7   54    5 1    
     8   55    5 1    
     9    7    6 1    
    10    8    6 1    
    11   56    6 1    
    12   12    7 1    
    13    9    8 1    
    14   10    8 1    
    15   57    8 1    
    16   80    9 1    
    17   11   10 1    
    18   12   10 1    
    19   58   10 1    
    20   81   11 1    
    21   13   12 1    
    22   59   12 1    
    23   14   13 1    
    24   22   13 1    
    25   15   14 2    
    26   60   14 1    
    27   16   15 1    
    28   17   16 ar   
    29   22   16 ar   
    30   18   17 1    
    31   19   17 ar   
    32   61   18 1    
    33   62   18 1    
    34   20   19 ar   
    35   21   20 ar   
    36   63   20 1    
    37   22   21 ar   
    38   24   23 1    
    39   40   23 2    
    40   25   24 2    
    41   26   24 am   
    42   27   26 am   
    43   64   26 1    
    44   28   27 2    
    45   29   27 1    
    46   30   29 2    
    47   40   29 1    
    48   31   30 1    
    49   32   31 ar   
    50   38   31 ar   
    51   33   32 ar   
    52   65   32 1    
    53   34   33 1    
    54   35   33 ar   
    55   74   34 1    
    56   75   34 1    
    57   76   34 1    
    58   36   35 1    
    59   37   35 ar   
    60   77   36 1    
    61   78   36 1    
    62   79   36 1    
    63   38   37 ar   
    64   66   37 1    
    65   39   38 1    
    66   40   39 1    
    67   41   39 1    
    68   42   41 1    
    69   67   41 1    
    70   68   41 1    
    71   43   42 1    
    72   44   42 1    
    73   69   42 1    
    74   82   43 1    
    75   45   44 1    
    76   46   44 1    
    77   70   44 1    
    78   83   45 1    
    79   47   46 1    
    80   48   46 1    
    81   71   46 1    
    82   84   47 1    
    83   49   48 1    
    84   72   48 1    
    85   73   48 1    
    86   50   49 1    
    87   51   50 ar   
    88   52   50 ar   
    89   53   50 1    
@<TRIPOS>SUBSTRUCTURE
     1 FAD1302     1 GROUP   
@<TRIPOS>SET

