#    Name: 3ish_FAD_1_INTS_M
#    Modification time : Tue Mar 25 17:20:52 2014

@<TRIPOS>MOLECULE
3ish_FAD_1_INTS_M
  118     0     9     0     0
SMALL
NO_CHARGES


@<TRIPOS>ATOM
      1 N         -41.4905   -6.5235  -18.3935 N.am      2 SEC2        0.0000 
      2 N         -41.1510   -5.6240  -17.3190 N.am      8 SEL2        0.0000 
      3 N         -41.8300   -7.4230  -19.4680 N.am      5 SEP2        0.0000 
      4 N         -38.9385   -4.3355  -18.8715 N.am      2 SEC2        0.0000 
      5 N         -40.1970   -3.8170  -18.7650 N.am      8 SEL2        0.0000 
      6 N         -37.6800   -4.8540  -18.9780 N.am      5 SEP2        0.0000 
      7 CA        -42.1795   -0.1015  -17.6350 C.3       3 GLC5        0.0000 
      8 CA        -42.5630   -2.0880  -17.9970 C.3       9 GLL5        0.0000 
      9 CA        -41.7960    1.8850  -17.2730 C.3       6 GLP5        0.0000 
     10 CA        -40.7500   -1.3375  -17.6200 C.3       3 GLC5        0.0000 
     11 CA        -38.9370   -0.5870  -17.2430 C.3       6 GLP5        0.0000 
     12 CA        -45.1365   -0.5600  -17.5650 C.3       3 GLC5        0.0000 
     13 CA        -43.9780   -1.9570  -18.5180 C.3       9 GLL5        0.0000 
     14 CA        -46.2950    0.8370  -16.6120 C.3       6 GLP5        0.0000 
     15 CA        -44.1165   -4.6255  -19.3720 C.3       3 GLC5        0.0000 
     16 CA        -44.1910   -2.6490  -19.8680 C.3       9 GLL5        0.0000 
     17 CA        -44.0420   -6.6020  -18.8760 C.3       6 GLP5        0.0000 
     18 O         -46.5385   -2.6655  -19.5070 O.2       1 ALC1        0.0000 
     19 O         -45.4030   -3.3530  -19.7410 O.2       7 ALL1        0.0000 
     20 O         -47.6740   -1.9780  -19.2730 O.2       4 ALP1        0.0000 
     21 O         -46.6495   -2.0590  -21.6750 O.2       1 ALC1        0.0000 
     22 O         -45.1640   -1.7050  -21.9500 O.2       7 ALL1        0.0000 
     23 O         -48.1350   -2.4130  -21.4000 O.2       4 ALP1        0.0000 
     24 CA        -45.6265    0.2170  -18.2825 C.3       3 GLC5        0.0000 
     25 CA        -44.9580   -0.4030  -19.9530 C.3       9 GLL5        0.0000 
     26 CA        -45.5865    3.3495  -23.3175 C.3       3 GLC5        0.0000 
     27 CA        -45.4190    4.2200  -21.4880 C.3       9 GLL5        0.0000 
     28 CA        -45.7540    2.4790  -25.1470 C.3       6 GLP5        0.0000 
     29 CA        -46.7035    5.9450  -20.9715 C.3       3 GLC5        0.0000 
     30 CA        -47.9880    7.6700  -20.4550 C.3       6 GLP5        0.0000 
     31 O         -45.4410    6.5485  -22.5355 O.2       1 ALC1        0.0000 
     32 O         -44.8330    5.2150  -22.1180 O.2       7 ALL1        0.0000 
     33 O         -46.0490    7.8820  -22.9530 O.2       4 ALP1        0.0000 
     34 N         -47.6265    5.4000  -21.9095 N.am      2 SEC2        0.0000 
     35 N         -46.7700    4.3290  -21.3260 N.am      8 SEL2        0.0000 
     36 N         -48.4830    6.4710  -22.4930 N.am      5 SEP2        0.0000 
     37 CA        -48.8480    1.8485  -20.2500 C.3       3 GLC5        0.0000 
     38 CA        -47.4310    3.2270  -20.8580 C.3       9 GLL5        0.0000 
     39 CA        -50.2650    0.4700  -19.6420 C.3       6 GLP5        0.0000 
     40 CA        -47.7880    2.2895  -22.3670 C.3       3 GLC5        0.0000 
     41 CA        -48.1450    1.3520  -23.8760 C.3       6 GLP5        0.0000 
     42 CA        -48.3900    4.0840  -22.5085 C.3       3 GLC5        0.0000 
     43 CA        -49.3490    4.9410  -24.1590 C.3       6 GLP5        0.0000 
     44 CA        -48.3405    5.1885  -20.3135 C.3       3 GLC5        0.0000 
     45 CA        -49.2500    7.1500  -19.7690 C.3       6 GLP5        0.0000 
     46 N         -48.0860    1.3165  -21.2280 N.am      2 SEC2        0.0000 
     47 N         -46.7830    2.0520  -20.5630 N.am      8 SEL2        0.0000 
     48 N         -49.3890    0.5810  -21.8930 N.am      5 SEP2        0.0000 
     49 CA        -45.8795    1.3975  -18.6660 C.3       3 GLC5        0.0000 
     50 CA        -45.4640    1.9580  -20.7200 C.3       9 GLL5        0.0000 
     51 N         -37.1645  -10.8860  -13.0415 N.am      2 SEC2        0.0000 
     52 N         -36.6120  -11.7440  -14.3530 N.am      8 SEL2        0.0000 
     53 N         -37.7170  -10.0280  -11.7300 N.am      5 SEP2        0.0000 
     54 N         -37.2665  -11.3235  -11.9860 N.am      2 SEC2        0.0000 
     55 N         -36.8160  -12.6190  -12.2420 N.am      8 SEL2        0.0000 
     56 O         -36.2850  -15.1630  -12.9415 O.2       1 ALC1        0.0000 
     57 O         -36.4390  -14.1250  -13.8620 O.2       7 ALL1        0.0000 
     58 O         -36.1310  -16.2010  -12.0210 O.2       4 ALP1        0.0000 
     59 N         -35.9650  -17.0205  -15.0755 N.am      2 SEC2        0.0000 
     60 N         -36.1360  -15.6500  -15.5740 N.am      8 SEL2        0.0000 
     61 N         -35.7940  -18.3910  -14.5770 N.am      5 SEP2        0.0000 
     62 CA        -37.4035  -14.2890  -20.2395 C.3       3 GLC5        0.0000 
     63 CA        -35.7330  -13.0160  -19.6340 C.3       9 GLL5        0.0000 
     64 CA        -39.0740  -15.5620  -20.8450 C.3       6 GLP5        0.0000 
     65 CA        -33.8705  -10.8500  -22.2195 C.3       3 GLC5        0.0000 
     66 CA        -35.4470  -12.3430  -22.0760 C.3       9 GLL5        0.0000 
     67 CA        -32.2940   -9.3570  -22.3630 C.3       6 GLP5        0.0000 
     68 CA        -37.5705   -8.6740  -20.6625 C.3       3 GLC5        0.0000 
     69 CA        -35.7550   -9.6100  -21.3450 C.3       9 GLL5        0.0000 
     70 CA        -39.3860   -7.7380  -19.9800 C.3       6 GLP5        0.0000 
     71 CA        -35.1665   -7.7835  -22.4560 C.3       3 GLC5        0.0000 
     72 CA        -34.5780   -5.9570  -23.5670 C.3       6 GLP5        0.0000 
     73 CA        -37.7290   -9.0375  -19.4490 C.3       3 GLC5        0.0000 
     74 CA        -36.0720  -10.3370  -18.9180 C.3       9 GLL5        0.0000 
     75 CA        -35.7390   -9.5535  -14.0245 C.3       3 GLC5        0.0000 
     76 CA        -36.1690   -9.5890  -16.2150 C.3       9 GLL5        0.0000 
     77 CA        -35.3090   -9.5180  -11.8340 C.3       6 GLP5        0.0000 
     78 CA        -38.7780  -10.1530  -14.5715 C.3       3 GLC5        0.0000 
     79 CA        -37.5720   -9.1260  -15.8320 C.3       9 GLL5        0.0000 
     80 CA        -39.9840  -11.1800  -13.3110 C.3       6 GLP5        0.0000 
     81 O         -36.1560   -5.8775  -14.1735 O.2       1 ALC1        0.0000 
     82 O         -36.5410   -7.4210  -14.5690 O.2       7 ALL1        0.0000 
     83 O         -35.7710   -4.3340  -13.7780 O.2       4 ALP1        0.0000 
     84 O         -36.1540   -6.1470  -15.2450 O.2       1 ALC1        0.0000 
     85 O         -35.7670   -4.8730  -15.9210 O.2       4 ALP1        0.0000 
     86 CA        -40.7735   -7.5600  -14.1895 C.3       3 GLC5        0.0000 
     87 CA        -38.8030   -7.1760  -15.0020 C.3       9 GLL5        0.0000 
     88 CA        -42.7440   -7.9440  -13.3770 C.3       6 GLP5        0.0000 
     89 CA        -38.9680   -8.4960  -13.2130 C.3       3 GLC5        0.0000 
     90 CA        -39.1330   -9.8160  -11.4240 C.3       6 GLP5        0.0000 
     91 CA        -37.3045   -4.1370  -15.0305 C.3       3 GLC5        0.0000 
     92 CA        -38.6490   -5.7090  -14.7310 C.3       9 GLL5        0.0000 
     93 CA        -35.9600   -2.5650  -15.3300 C.3       6 GLP5        0.0000 
     94 N         -42.6065   -4.0250  -12.7580 N.am      2 SEC2        0.0000 
     95 N         -41.8550   -3.6400  -14.0120 N.am      8 SEL2        0.0000 
     96 N         -43.3580   -4.4100  -11.5040 N.am      5 SEP2        0.0000 
     97 N         -38.2190   -2.2595  -13.6655 N.am      2 SEC2        0.0000 
     98 N         -39.5070   -2.7700  -14.0910 N.am      8 SEL2        0.0000 
     99 N         -36.9310   -1.7490  -13.2400 N.am      5 SEP2        0.0000 
    100 CA        -44.1423   -3.4413  -16.9007 C.3       3 GLC5        0.0000 
    101 CA        -45.0140   -4.8600  -15.5440 C.3       6 GLP5        0.0000 
    102 CA        -45.3920    1.7730  -22.7495 C.3       3 GLC5        0.0000 
    103 CA        -45.6740    1.0570  -24.5470 C.3       6 GLP5        0.0000 
    104 CA        -44.1054    3.4160  -19.5565 C.3       3 GLC5        0.0000 
    105 CA        -44.7560    3.0200  -21.1840 C.3       9 GLL5        0.0000 
    106 CA        -42.9350    4.0430  -18.0850 C.3       6 GLP5        0.0000 
    107 CA        -33.7097  -12.3193  -19.2415 C.3       3 GLC5        0.0000 
    108 CA        -35.9610  -12.6960  -18.3320 C.3       9 GLL5        0.0000 
    109 CA        -31.6620  -12.2160  -18.6910 C.3       6 GLP5        0.0000 
    110 CA        -34.0455   -9.7445  -21.5795 C.3       3 GLC5        0.0000 
    111 CA        -35.8390  -10.6540  -20.2470 C.3       9 GLL5        0.0000 
    112 CA        -37.5613  -12.8405  -17.8275 C.3       3 GLC5        0.0000 
    113 CA        -36.1240  -11.3600  -17.9390 C.3       9 GLL5        0.0000 
    114 CA        -39.1370  -13.5730  -17.1940 C.3       6 GLP5        0.0000 
    115 CA        -34.6052  -12.6095  -17.3025 C.3       3 GLC5        0.0000 
    116 CA        -33.2250  -13.1110  -16.1440 C.3       6 GLP5        0.0000 
    117 CA        -39.1095   -5.8788  -12.9638 C.3       3 GLC5        0.0000 
    118 CA        -39.4930   -5.3150  -11.0610 C.3       6 GLP5        0.0000 
@<TRIPOS>BOND
@<TRIPOS>SUBSTRUCTURE
     1 ALC1       18 GROUP        1 X    ALC  0     ROOT ALC X 1
     2 SEC2        1 GROUP        1 X    SEC  0     **** SEC X 2
     3 GLC5        7 GROUP        1 X    GLC  0     **** GLC X 6
     4 ALP1       20 GROUP        1 Y    ALP  0     ROOT ALP Y 8
     5 SEP2        3 GROUP        1 Y    SEP  0     **** SEP Y 9
     6 GLP5        9 GROUP        1 Y    GLP  0     **** GLP Y 13
     7 ALL1       19 GROUP        1 Z    ALL  0     ROOT ALL Z 15
     8 SEL2        2 GROUP        1 Z    SEL  0     **** SEL Z 16
     9 GLL5        8 GROUP        1 Z    GLL  0     **** GLL Z 20
@<TRIPOS>SET

