#    Name: 3ish_FAD_1_ligand
#    Modification time : Tue Mar 25 17:20:52 2014

@<TRIPOS>MOLECULE
3ish_FAD_1_ligand
   84    89     1     0     0
SMALL
NO_CHARGES


@<TRIPOS>ATOM
      1 PA        -41.0390   -4.1330  -17.5700 P.3       1 FAD348      0.0000 
      2 O1A       -41.1510   -5.6240  -17.3190 O.co2     1 FAD348      0.0000 
      3 O2A       -40.1970   -3.8170  -18.7650 O.co2     1 FAD348      0.0000 
      4 O5B       -42.4580   -3.4080  -17.6550 O.3       1 FAD348      0.0000 
      5 C5B       -42.5630   -2.0880  -17.9970 C.3       1 FAD348      0.0000 
      6 C4B       -43.9780   -1.9570  -18.5180 C.3       1 FAD348      0.0000 
      7 O4B       -44.2700   -0.5770  -18.7250 O.3       1 FAD348      0.0000 
      8 C3B       -44.1910   -2.6490  -19.8680 C.3       1 FAD348      0.0000 
      9 O3B       -45.4030   -3.3530  -19.7410 O.3       1 FAD348      0.0000 
     10 C2B       -44.3350   -1.4880  -20.8330 C.3       1 FAD348      0.0000 
     11 O2B       -45.1640   -1.7050  -21.9500 O.3       1 FAD348      0.0000 
     12 C1B       -44.9580   -0.4030  -19.9530 C.3       1 FAD348      0.0000 
     13 N9A       -44.5960    0.9300  -20.4820 N.pl3     1 FAD348      0.0000 
     14 C8A       -43.3500    1.3340  -20.8340 C.2       1 FAD348      0.0000 
     15 N7A       -43.4540    2.6160  -21.2410 N.2       1 FAD348      0.0000 
     16 C5A       -44.7560    3.0200  -21.1840 C.ar      1 FAD348      0.0000 
     17 C6A       -45.4190    4.2200  -21.4880 C.ar      1 FAD348      0.0000 
     18 N6A       -44.8330    5.2150  -22.1180 N.pl3     1 FAD348      0.0000 
     19 N1A       -46.7700    4.3290  -21.3260 N.ar      1 FAD348      0.0000 
     20 C2A       -47.4310    3.2270  -20.8580 C.ar      1 FAD348      0.0000 
     21 N3A       -46.7830    2.0520  -20.5630 N.ar      1 FAD348      0.0000 
     22 C4A       -45.4640    1.9580  -20.7200 C.ar      1 FAD348      0.0000 
     23 N1        -36.6120  -11.7440  -14.3530 N.2       1 FAD348      0.0000 
     24 C2        -36.6340  -12.8100  -13.4410 C.2       1 FAD348      0.0000 
     25 O2        -36.8160  -12.6190  -12.2420 O.2       1 FAD348      0.0000 
     26 N3        -36.4390  -14.1250  -13.8620 N.am      1 FAD348      0.0000 
     27 C4        -36.2730  -14.4550  -15.2000 C.2       1 FAD348      0.0000 
     28 O4        -36.1360  -15.6500  -15.5740 O.2       1 FAD348      0.0000 
     29 C4X       -36.2380  -13.3890  -16.1030 C.2       1 FAD348      0.0000 
     30 N5        -36.0300  -13.7100  -17.4430 N.2       1 FAD348      0.0000 
     31 C5X       -35.9610  -12.6960  -18.3320 C.ar      1 FAD348      0.0000 
     32 C6        -35.7330  -13.0160  -19.6340 C.ar      1 FAD348      0.0000 
     33 C7        -35.6680  -11.9890  -20.6010 C.ar      1 FAD348      0.0000 
     34 C7M       -35.4470  -12.3430  -22.0760 C.3       1 FAD348      0.0000 
     35 C8        -35.8390  -10.6540  -20.2470 C.ar      1 FAD348      0.0000 
     36 C8M       -35.7550   -9.6100  -21.3450 C.3       1 FAD348      0.0000 
     37 C9        -36.0720  -10.3370  -18.9180 C.ar      1 FAD348      0.0000 
     38 C9A       -36.1240  -11.3600  -17.9390 C.ar      1 FAD348      0.0000 
     39 N10       -36.3090  -11.0360  -16.6000 N.pl3     1 FAD348      0.0000 
     40 C10       -36.3660  -12.0410  -15.6720 C.2       1 FAD348      0.0000 
     41 C1'       -36.1690   -9.5890  -16.2150 C.3       1 FAD348      0.0000 
     42 C2'       -37.5720   -9.1260  -15.8320 C.3       1 FAD348      0.0000 
     43 O2'       -38.4490   -9.4770  -16.8720 O.3       1 FAD348      0.0000 
     44 C3'       -37.5100   -7.6410  -15.5700 C.3       1 FAD348      0.0000 
     45 O3'       -36.5410   -7.4210  -14.5690 O.3       1 FAD348      0.0000 
     46 C4'       -38.8030   -7.1760  -15.0020 C.3       1 FAD348      0.0000 
     47 O4'       -39.8380   -7.4050  -15.9340 O.3       1 FAD348      0.0000 
     48 C5'       -38.6490   -5.7090  -14.7310 C.3       1 FAD348      0.0000 
     49 O5'       -39.9150   -5.2390  -14.3590 O.3       1 FAD348      0.0000 
     50 P         -40.4890   -3.7760  -14.6540 P.3       1 FAD348      0.0000 
     51 O1P       -41.8550   -3.6400  -14.0120 O.co2     1 FAD348      0.0000 
     52 O2P       -39.5070   -2.7700  -14.0910 O.co2     1 FAD348      0.0000 
     53 O3P       -40.5270   -3.4090  -16.2220 O.3       1 FAD348      0.0000 
     54 H         -41.8916   -1.7906  -18.7930 H         1 FAD348      0.0000 
     55 H         -42.4587   -1.4119  -17.1574 H         1 FAD348      0.0000 
     56 H         -44.6636   -2.3842  -17.8088 H         1 FAD348      0.0000 
     57 H         -43.3626   -3.2150  -20.0902 H         1 FAD348      0.0000 
     58 H         -43.3491   -1.1363  -21.0844 H         1 FAD348      0.0000 
     59 H         -45.9716   -0.5498  -19.8775 H         1 FAD348      0.0000 
     60 H         -42.5540    0.8081  -20.7989 H         1 FAD348      0.0000 
     61 H         -45.4079    6.0082  -22.3187 H         1 FAD348      0.0000 
     62 H         -43.8660    5.0875  -22.3387 H         1 FAD348      0.0000 
     63 H         -48.4714    3.2781  -20.7182 H         1 FAD348      0.0000 
     64 H         -36.4176  -14.8834  -13.1461 H         1 FAD348      0.0000 
     65 H         -35.6061  -13.9890  -19.9352 H         1 FAD348      0.0000 
     66 H         -36.2091   -9.3620  -18.6281 H         1 FAD348      0.0000 
     67 H         -35.8213   -9.0151  -17.0493 H         1 FAD348      0.0000 
     68 H         -35.5198   -9.4913  -15.3693 H         1 FAD348      0.0000 
     69 H         -37.8208   -9.6282  -14.9030 H         1 FAD348      0.0000 
     70 H         -37.2933   -7.1252  -16.4605 H         1 FAD348      0.0000 
     71 H         -38.9717   -7.6802  -14.0716 H         1 FAD348      0.0000 
     72 H         -38.2791   -5.2306  -15.6370 H         1 FAD348      0.0000 
     73 H         -37.9111   -5.5828  -13.9398 H         1 FAD348      0.0000 
     74 H         -34.5824  -12.8255  -22.2166 H         1 FAD348      0.0000 
     75 H         -36.1729  -12.9333  -22.4291 H         1 FAD348      0.0000 
     76 H         -35.4251  -11.5275  -22.6544 H         1 FAD348      0.0000 
     77 H         -34.8633   -9.6180  -21.7976 H         1 FAD348      0.0000 
     78 H         -36.4447   -9.7598  -22.0534 H         1 FAD348      0.0000 
     79 H         -35.8953   -8.6857  -20.9901 H         1 FAD348      0.0000 
     80 H         -46.0930   -2.6507  -19.5660 H         1 FAD348      0.0000 
     81 H         -46.0593   -1.9331  -21.5673 H         1 FAD348      0.0000 
     82 H         -39.1936   -8.8117  -16.8181 H         1 FAD348      0.0000 
     83 H         -36.1281   -6.5394  -14.7979 H         1 FAD348      0.0000 
     84 H         -40.0823   -6.4981  -16.2773 H         1 FAD348      0.0000 
@<TRIPOS>BOND
     1    2    1 ar   
     2    3    1 ar   
     3    4    1 1    
     4   53    1 1    
     5    5    4 1    
     6    6    5 1    
     7   54    5 1    
     8   55    5 1    
     9    7    6 1    
    10    8    6 1    
    11   56    6 1    
    12   12    7 1    
    13    9    8 1    
    14   10    8 1    
    15   57    8 1    
    16   80    9 1    
    17   11   10 1    
    18   12   10 1    
    19   58   10 1    
    20   81   11 1    
    21   13   12 1    
    22   59   12 1    
    23   14   13 1    
    24   22   13 1    
    25   15   14 2    
    26   60   14 1    
    27   16   15 1    
    28   17   16 ar   
    29   22   16 ar   
    30   18   17 1    
    31   19   17 ar   
    32   61   18 1    
    33   62   18 1    
    34   20   19 ar   
    35   21   20 ar   
    36   63   20 1    
    37   22   21 ar   
    38   24   23 1    
    39   40   23 2    
    40   25   24 2    
    41   26   24 am   
    42   27   26 am   
    43   64   26 1    
    44   28   27 2    
    45   29   27 1    
    46   30   29 2    
    47   40   29 1    
    48   31   30 1    
    49   32   31 ar   
    50   38   31 ar   
    51   33   32 ar   
    52   65   32 1    
    53   34   33 1    
    54   35   33 ar   
    55   74   34 1    
    56   75   34 1    
    57   76   34 1    
    58   36   35 1    
    59   37   35 ar   
    60   77   36 1    
    61   78   36 1    
    62   79   36 1    
    63   38   37 ar   
    64   66   37 1    
    65   39   38 1    
    66   40   39 1    
    67   41   39 1    
    68   42   41 1    
    69   67   41 1    
    70   68   41 1    
    71   43   42 1    
    72   44   42 1    
    73   69   42 1    
    74   82   43 1    
    75   45   44 1    
    76   46   44 1    
    77   70   44 1    
    78   83   45 1    
    79   47   46 1    
    80   48   46 1    
    81   71   46 1    
    82   84   47 1    
    83   49   48 1    
    84   72   48 1    
    85   73   48 1    
    86   50   49 1    
    87   51   50 ar   
    88   52   50 ar   
    89   53   50 1    
@<TRIPOS>SUBSTRUCTURE
     1 FAD348      1 GROUP   
@<TRIPOS>SET

