#    Name: 1mru_AGS_1_INTS_M
#    Modification time : Tue Mar 25 12:01:57 2014

@<TRIPOS>MOLECULE
1mru_AGS_1_INTS_M
   67     0    15     0     0
SMALL
NO_CHARGES


@<TRIPOS>ATOM
      1 N          -3.1535   23.1260   12.3955 N.am      2 SEC2        0.0000 
      2 N          -1.4910   23.2860   12.0950 N.am     12 SEL2        0.0000 
      3 N          -4.8160   22.9660   12.6960 N.am      7 SEP2        0.0000 
      4 N          -2.0080   23.4045   13.2125 N.am      2 SEC2        0.0000 
      5 N          -2.5250   23.5230   14.3300 N.am      7 SEP2        0.0000 
      6 NZ          1.0155   21.7825   13.5515 N.4       3 LYC4        0.0000 
      7 NZ          0.5800   21.7380   11.8410 N.4      13 LYL4        0.0000 
      8 NZ          1.4510   21.8270   15.2620 N.4       8 LYP4        0.0000 
      9 Zn          0.9820   20.5390   11.9045 Zn        4 ZIC7        0.0000 
     10 Zn          0.5800   21.7380   11.8410 Zn       14 ZIL7        0.0000 
     11 Zn          1.3840   19.3400   11.9680 Zn        9 ZIP7        0.0000 
     12 N           2.0290   21.4005   11.4855 N.am      2 SEC2        0.0000 
     13 N           0.5800   21.7380   11.8410 N.am     12 SEL2        0.0000 
     14 N           3.4780   21.0630   11.1300 N.am      7 SEP2        0.0000 
     15 NZ          1.9725   22.8355   14.4115 N.4       3 LYC4        0.0000 
     16 NZ          2.4940   23.8440   13.5610 N.4      13 LYL4        0.0000 
     17 N           1.9725   22.8355   14.4115 N.am      2 SEC2        0.0000 
     18 N           2.4940   23.8440   13.5610 N.am     12 SEL2        0.0000 
     19 N           1.4510   21.8270   15.2620 N.am      7 SEP2        0.0000 
     20 CA          0.7155   27.0850   13.2705 C.3       5 GLC5        0.0000 
     21 CA          1.5340   26.8990   11.3590 C.3      15 GLL5        0.0000 
     22 CA         -0.1030   27.2710   15.1820 C.3      10 GLP5        0.0000 
     23 CA          0.4185   29.6360   11.4310 C.3       5 GLC5        0.0000 
     24 CA          2.1770   28.2750   11.3860 C.3      15 GLL5        0.0000 
     25 CA         -1.3400   30.9970   11.4760 C.3      10 GLP5        0.0000 
     26 CA          5.7585   30.4530   12.4115 C.3       5 GLC5        0.0000 
     27 CA          3.9740   29.5680   11.8860 C.3      15 GLL5        0.0000 
     28 CA          7.5430   31.3380   12.9370 C.3      10 GLP5        0.0000 
     29 O           2.2410   31.6975   11.3945 O.2       1 ALC1        0.0000 
     30 O           3.6740   30.7600   11.1370 O.2      11 ALL1        0.0000 
     31 O           0.8080   32.6350   11.6520 O.2       6 ALP1        0.0000 
     32 CA          2.1915   31.2120   13.8960 C.3       5 GLC5        0.0000 
     33 CA          3.1100   29.4920   13.0960 C.3      15 GLL5        0.0000 
     34 CA          1.2730   32.9320   14.6960 C.3      10 GLP5        0.0000 
     35 CA          1.4245   29.0945   14.3930 C.3       5 GLC5        0.0000 
     36 CA         -0.2610   28.6970   15.6900 C.3      10 GLP5        0.0000 
     37 CA          5.9940   27.6275   14.7140 C.3       5 GLC5        0.0000 
     38 CA          4.8870   28.7500   16.1640 C.3      15 GLL5        0.0000 
     39 CA          7.1010   26.5050   13.2640 C.3      10 GLP5        0.0000 
     40 CA          7.8095   29.6960   17.4680 C.3       5 GLC5        0.0000 
     41 CA          5.6610   29.2870   17.2350 C.3      15 GLL5        0.0000 
     42 CA          9.9580   30.1050   17.7010 C.3      10 GLP5        0.0000 
     43 O           6.6475   28.9350   19.4995 O.2       1 ALC1        0.0000 
     44 O           6.1300   28.6750   18.2120 O.2      11 ALL1        0.0000 
     45 O           7.1650   29.1950   20.7870 O.2       6 ALP1        0.0000 
     46 N           6.9970   31.3875   17.9340 N.am      2 SEC2        0.0000 
     47 N           5.8750   30.6420   17.1180 N.am     12 SEL2        0.0000 
     48 N           8.1190   32.1330   18.7500 N.am      7 SEP2        0.0000 
     49 CA          3.8865   32.1735   16.4940 C.3       5 GLC5        0.0000 
     50 CA          5.4090   31.4370   16.0890 C.3      15 GLL5        0.0000 
     51 CA          2.3640   32.9100   16.8990 C.3      10 GLP5        0.0000 
     52 CA          7.4970   31.3805   16.4980 C.3       5 GLC5        0.0000 
     53 CA          9.5850   31.3240   16.9070 C.3      10 GLP5        0.0000 
     54 CA          6.4760   31.3875   14.5130 C.3       5 GLC5        0.0000 
     55 CA          3.4130   31.2675   16.0390 C.3       5 GLC5        0.0000 
     56 CA          4.4620   29.6250   15.1790 C.3      15 GLL5        0.0000 
     57 CA          5.4183   28.9373   10.1253 C.3       5 GLC5        0.0000 
     58 CA          7.0150   28.9690    8.7200 C.3      10 GLP5        0.0000 
     59 CA          4.9452   27.2782   11.8063 C.3       5 GLC5        0.0000 
     60 CA          3.6690   28.2430   11.1750 C.3      15 GLL5        0.0000 
     61 CA          6.0690   25.6510   12.0820 C.3      10 GLP5        0.0000 
     62 CA          2.7157   29.1003   16.2142 C.3       5 GLC5        0.0000 
     63 CA          0.7570   29.0130   16.7570 C.3      10 GLP5        0.0000 
     64 CA          4.3740   29.6487   18.3697 C.3       5 GLC5        0.0000 
     65 CA          3.4740   30.2790   20.0400 C.3      10 GLP5        0.0000 
     66 CA          6.4670   29.5364   14.7106 C.3       5 GLC5        0.0000 
     67 CA          8.0660   29.7510   13.4820 C.3      10 GLP5        0.0000 
@<TRIPOS>BOND
@<TRIPOS>SUBSTRUCTURE
     1 ALC1       29 GROUP        1 X    ALC  0     ROOT ALC X 1
     2 SEC2        1 GROUP        1 X    SEC  0     **** SEC X 2
     3 LYC4        6 GROUP        1 X    LYC  0     **** LYC X 4
     4 ZIC7        9 GROUP        1 X    ZIC  0     **** ZIC X 5
     5 GLC5       20 GROUP        1 X    GLC  0     **** GLC X 6
     6 ALP1       31 GROUP        1 Y    ALP  0     ROOT ALP Y 8
     7 SEP2        3 GROUP        1 Y    SEP  0     **** SEP Y 9
     8 LYP4        8 GROUP        1 Y    LYP  0     **** LYP Y 11
     9 ZIP7       11 GROUP        1 Y    ZIP  0     **** ZIP Y 12
    10 GLP5       22 GROUP        1 Y    GLP  0     **** GLP Y 13
    11 ALL1       30 GROUP        1 Z    ALL  0     ROOT ALL Z 15
    12 SEL2        2 GROUP        1 Z    SEL  0     **** SEL Z 16
    13 LYL4        7 GROUP        1 Z    LYL  0     **** LYL Z 18
    14 ZIL7       10 GROUP        1 Z    ZIL  0     **** ZIL Z 19
    15 GLL5       21 GROUP        1 Z    GLL  0     **** GLL Z 20
@<TRIPOS>SET

