#    Name: 1mru_AGS_1_ligand
#    Modification time : Tue Mar 25 12:01:57 2014

@<TRIPOS>MOLECULE
1mru_AGS_1_ligand
   42    44     1     0     0
SMALL
NO_CHARGES


@<TRIPOS>ATOM
      1 PG          0.2800   21.9250    8.9080 P.3       1 AGS340      0.0000 
      2 S1G         0.0630   22.3720    6.9490 S.3       1 AGS340      0.0000 
      3 O2G         1.8480   21.8620    9.2260 O.co2     1 AGS340      0.0000 
      4 O3G        -0.3940   20.5770    9.1750 O.co2     1 AGS340      0.0000 
      5 PB         -0.1810   23.0470   11.4910 P.3       1 AGS340      0.0000 
      6 O1B        -1.4910   23.2860   12.0950 O.co2     1 AGS340      0.0000 
      7 O2B         0.5800   21.7380   11.8410 O.co2     1 AGS340      0.0000 
      8 O3B        -0.2680   23.0730    9.8880 O.3       1 AGS340      0.0000 
      9 PA          2.2090   24.3980   12.1200 P.3       1 AGS340      0.0000 
     10 O1A         2.4940   23.8440   13.5610 O.co2     1 AGS340      0.0000 
     11 O2A         3.0710   23.6280   11.1150 O.co2     1 AGS340      0.0000 
     12 O3A         0.7280   24.2970   11.6920 O.3       1 AGS340      0.0000 
     13 O5'         2.4100   25.9970   12.1360 O.3       1 AGS340      0.0000 
     14 C5'         1.5340   26.8990   11.3590 C.3       1 AGS340      0.0000 
     15 C4'         2.1770   28.2750   11.3860 C.3       1 AGS340      0.0000 
     16 O4'         2.0530   28.7220   12.7370 O.3       1 AGS340      0.0000 
     17 C3'         3.6690   28.2430   11.1750 C.3       1 AGS340      0.0000 
     18 O3'         4.1080   27.8990    9.8170 O.3       1 AGS340      0.0000 
     19 C2'         3.9740   29.5680   11.8860 C.3       1 AGS340      0.0000 
     20 O2'         3.6740   30.7600   11.1370 O.3       1 AGS340      0.0000 
     21 C1'         3.1100   29.4920   13.0960 C.3       1 AGS340      0.0000 
     22 N9          3.7490   28.8900   14.2890 N.pl3     1 AGS340      0.0000 
     23 C8          3.7690   27.6140   14.7560 C.2       1 AGS340      0.0000 
     24 N7          4.4480   27.4730   15.8950 N.2       1 AGS340      0.0000 
     25 C5          4.8870   28.7500   16.1640 C.ar      1 AGS340      0.0000 
     26 C6          5.6610   29.2870   17.2350 C.ar      1 AGS340      0.0000 
     27 N6          6.1300   28.6750   18.2120 N.pl3     1 AGS340      0.0000 
     28 N1          5.8750   30.6420   17.1180 N.ar      1 AGS340      0.0000 
     29 C2          5.4090   31.4370   16.0890 C.ar      1 AGS340      0.0000 
     30 N3          4.6880   30.9710   15.0860 N.ar      1 AGS340      0.0000 
     31 C4          4.4620   29.6250   15.1790 C.ar      1 AGS340      0.0000 
     32 H           0.5541   26.9595   11.8082 H         1 AGS340      0.0000 
     33 H           1.4566   26.5667   10.3347 H         1 AGS340      0.0000 
     34 H           1.7156   28.9248   10.7226 H         1 AGS340      0.0000 
     35 H           4.0033   27.4532   11.9217 H         1 AGS340      0.0000 
     36 H           4.9985   29.5292   12.2171 H         1 AGS340      0.0000 
     37 H           2.7810   30.5035   13.3402 H         1 AGS340      0.0000 
     38 H           3.3133   26.8609   14.2805 H         1 AGS340      0.0000 
     39 H           5.6565   32.4706   16.1299 H         1 AGS340      0.0000 
     40 H           4.8727   27.2674    9.9446 H         1 AGS340      0.0000 
     41 H           2.7854   31.0644   11.4802 H         1 AGS340      0.0000 
     42 H           6.4668   29.3882   18.8267 H         1 AGS340      0.0000 
@<TRIPOS>BOND
     1    2    1 1    
     2    3    1 ar   
     3    4    1 ar   
     4    8    1 1    
     5    6    5 ar   
     6    7    5 ar   
     7    8    5 1    
     8   12    5 1    
     9   10    9 ar   
    10   11    9 ar   
    11   12    9 1    
    12   13    9 1    
    13   14   13 1    
    14   15   14 1    
    15   32   14 1    
    16   33   14 1    
    17   16   15 1    
    18   17   15 1    
    19   34   15 1    
    20   21   16 1    
    21   18   17 1    
    22   19   17 1    
    23   35   17 1    
    24   40   18 1    
    25   20   19 1    
    26   21   19 1    
    27   36   19 1    
    28   41   20 1    
    29   22   21 1    
    30   37   21 1    
    31   23   22 1    
    32   31   22 1    
    33   24   23 2    
    34   38   23 1    
    35   25   24 1    
    36   26   25 ar   
    37   31   25 ar   
    38   27   26 1    
    39   28   26 ar   
    40   42   27 1    
    41   29   28 ar   
    42   30   29 ar   
    43   39   29 1    
    44   31   30 ar   
@<TRIPOS>SUBSTRUCTURE
     1 AGS340      1 GROUP   
@<TRIPOS>SET

