#    Name: 1uy8_PU5_1_INTS_M
#    Modification time : Tue Mar 25 07:17:42 2014

@<TRIPOS>MOLECULE
1uy8_PU5_1_INTS_M
   51     0     6     0     0
SMALL
NO_CHARGES


@<TRIPOS>ATOM
      1 CA          5.6145    8.1075   25.7685 C.3       2 GLC5        0.0000 
      2 CA          5.0660    7.3220   23.7970 C.3       6 GLL5        0.0000 
      3 CA          6.1630    8.8930   27.7400 C.3       4 GLP5        0.0000 
      4 CA          2.8315   10.9145   26.8330 C.3       2 GLC5        0.0000 
      5 CA          3.2960    9.3810   25.7620 C.3       6 GLL5        0.0000 
      6 CA          2.3670   12.4480   27.9040 C.3       4 GLP5        0.0000 
      7 CA          1.6340   11.2140   26.7980 C.3       2 GLC5        0.0000 
      8 CA          0.9010    9.9800   25.6920 C.3       6 GLL5        0.0000 
      9 CA         -2.2745    8.6925   26.5910 C.3       2 GLC5        0.0000 
     10 CA         -0.9160    9.6640   27.0930 C.3       6 GLL5        0.0000 
     11 CA         -3.6330    7.7210   26.0890 C.3       4 GLP5        0.0000 
     12 CA         -1.7165    8.3340   28.5060 C.3       2 GLC5        0.0000 
     13 CA         -2.5170    7.0040   29.9190 C.3       4 GLP5        0.0000 
     14 CA          0.4020   10.6480   28.2150 C.3       2 GLC5        0.0000 
     15 CA          1.7200   11.6320   29.3370 C.3       4 GLP5        0.0000 
     16 CA          1.4440   10.0555   21.9850 C.3       2 GLC5        0.0000 
     17 CA          3.2450   10.8070   23.0920 C.3       6 GLL5        0.0000 
     18 CA         -0.3570    9.3040   20.8780 C.3       4 GLP5        0.0000 
     19 CA         -0.1525   10.0090   22.8185 C.3       2 GLC5        0.0000 
     20 CA          0.0520   10.7140   24.7590 C.3       6 GLL5        0.0000 
     21 CA         -2.4880    9.2725   25.5930 C.3       2 GLC5        0.0000 
     22 CA         -1.3430   10.8240   25.0970 C.3       6 GLL5        0.0000 
     23 CA         -2.3300   12.4445   25.9445 C.3       2 GLC5        0.0000 
     24 CA         -3.3170   14.0650   26.7920 C.3       4 GLP5        0.0000 
     25 O          -3.5850   11.6430   24.2465 O.2       1 ALC1        0.0000 
     26 O          -2.1500   11.4490   24.2400 O.2       5 ALL1        0.0000 
     27 O          -5.0200   11.8370   24.2530 O.2       3 ALP1        0.0000 
     28 CA          4.4850   15.9955   27.5460 C.3       2 GLC5        0.0000 
     29 CA          4.6480   16.2200   25.6550 C.3       6 GLL5        0.0000 
     30 CA          4.3220   15.7710   29.4370 C.3       4 GLP5        0.0000 
     31 CA          4.5175   16.4220   23.7360 C.3       2 GLC5        0.0000 
     32 CA          4.3870   16.6240   21.8170 C.3       4 GLP5        0.0000 
     33 CA          3.2935   17.1865   25.0065 C.3       2 GLC5        0.0000 
     34 CA          1.9390   18.1530   24.3580 C.3       4 GLP5        0.0000 
     35 CA          5.3140   17.6965   25.8590 C.3       2 GLC5        0.0000 
     36 CA          5.9800   19.1730   26.0630 C.3       4 GLP5        0.0000 
     37 CA          4.7240    8.7615   26.6820 C.3       2 GLC5        0.0000 
     38 CA          0.1917   12.1700   26.1760 C.3       2 GLC5        0.0000 
     39 CA          1.0290   13.5710   27.4240 C.3       4 GLP5        0.0000 
     40 CA          5.2510   11.5480   25.7275 C.3       2 GLC5        0.0000 
     41 CA          4.1670   11.8520   23.6790 C.3       6 GLL5        0.0000 
     42 CA          5.6400   11.3270   27.8370 C.3       4 GLP5        0.0000 
     43 CA          5.3625   12.3910   22.0325 C.3       2 GLC5        0.0000 
     44 CA          5.5570   11.6860   23.5570 C.3       6 GLL5        0.0000 
     45 CA          4.7470   12.6100   20.2480 C.3       4 GLP5        0.0000 
     46 CA          3.2077   12.9497   26.2102 C.3       2 GLC5        0.0000 
     47 CA          3.6200   12.9700   24.2770 C.3       6 GLL5        0.0000 
     48 CA          4.8443   12.3893   26.1768 C.3       2 GLC5        0.0000 
     49 CA          4.2050   12.3799   22.0396 C.3       2 GLC5        0.0000 
     50 CA          5.8833   12.2705   26.1097 C.3       2 GLC5        0.0000 
     51 CA          6.3990   12.6580   24.0770 C.3       6 GLL5        0.0000 
@<TRIPOS>BOND
@<TRIPOS>SUBSTRUCTURE
     1 ALC1       25 GROUP        1 X    ALC  0     ROOT ALC X 1
     2 GLC5        1 GROUP        1 X    GLC  0     **** GLC X 6
     3 ALP1       27 GROUP        1 Y    ALP  0     ROOT ALP Y 8
     4 GLP5        3 GROUP        1 Y    GLP  0     **** GLP Y 13
     5 ALL1       26 GROUP        1 Z    ALL  0     ROOT ALL Z 15
     6 GLL5        2 GROUP        1 Z    GLL  0     **** GLL Z 20
@<TRIPOS>SET

