#    Name: 1uy8_PU5_1_ligand
#    Modification time : Tue Mar 25 07:17:42 2014

@<TRIPOS>MOLECULE
1uy8_PU5_1_ligand
   44    46     1     0     0
SMALL
NO_CHARGES


@<TRIPOS>ATOM
      1 C18         5.0660    7.3220   23.7970 C.3       1 PU51224     0.0000 
      2 C17         3.6040    7.4470   24.2530 C.3       1 PU51224     0.0000 
      3 C16         3.2740    7.8790   25.4860 C.3       1 PU51224     0.0000 
      4 C15         3.2960    9.3810   25.7620 C.3       1 PU51224     0.0000 
      5 N2          2.0990    9.9760   25.1460 N.pl3     1 PU51224     0.0000 
      6 C12         0.9010    9.9800   25.6920 C.ar      1 PU51224     0.0000 
      7 N4          0.4000    9.5170   26.8410 N.ar      1 PU51224     0.0000 
      8 C14        -0.9160    9.6640   27.0930 C.ar      1 PU51224     0.0000 
      9 C9          3.2450   10.8070   23.0920 C.3       1 PU51224     0.0000 
     10 N3         -1.7690   10.3330   26.2830 N.ar      1 PU51224     0.0000 
     11 C11         0.0520   10.7140   24.7590 C.ar      1 PU51224     0.0000 
     12 C13        -1.3430   10.8240   25.0970 C.ar      1 PU51224     0.0000 
     13 N5         -2.1500   11.4490   24.2400 N.pl3     1 PU51224     0.0000 
     14 N1          0.8130   11.0990   23.7430 N.2       1 PU51224     0.0000 
     15 C10         2.0450   10.6060   23.9820 C.2       1 PU51224     0.0000 
     16 C1          5.5570   11.6860   23.5570 C.ar      1 PU51224     0.0000 
     17 C6          4.1670   11.8520   23.6790 C.ar      1 PU51224     0.0000 
     18 C5          3.6200   12.9700   24.2770 C.ar      1 PU51224     0.0000 
     19 C2          6.3990   12.6580   24.0770 C.ar      1 PU51224     0.0000 
     20 C3          5.8540   13.7700   24.6880 C.ar      1 PU51224     0.0000 
     21 C4          4.4770   13.9330   24.7560 C.ar      1 PU51224     0.0000 
     22 O1          3.9190   15.0200   25.3740 O.3       1 PU51224     0.0000 
     23 C7          4.6480   16.2200   25.6550 C.3       1 PU51224     0.0000 
     24 H           3.1361    6.4109   24.0212 H         1 PU51224     0.0000 
     25 H           3.0928    8.0791   23.4252 H         1 PU51224     0.0000 
     26 H           3.9298    7.4121   26.2997 H         1 PU51224     0.0000 
     27 H           2.2322    7.5279   25.8048 H         1 PU51224     0.0000 
     28 H           4.1994    9.7988   25.3330 H         1 PU51224     0.0000 
     29 H           3.2961    9.5361   26.8347 H         1 PU51224     0.0000 
     30 H          -1.3111    9.2274   27.9843 H         1 PU51224     0.0000 
     31 H           2.9161   11.1295   22.1032 H         1 PU51224     0.0000 
     32 H           3.7852    9.8649   22.9894 H         1 PU51224     0.0000 
     33 H          -3.1017   11.5539   24.5284 H         1 PU51224     0.0000 
     34 H          -1.7311   11.7568   23.3857 H         1 PU51224     0.0000 
     35 H           5.9330   10.8604   23.0917 H         1 PU51224     0.0000 
     36 H           2.6096   13.0760   24.3598 H         1 PU51224     0.0000 
     37 H           7.4169   12.5491   24.0069 H         1 PU51224     0.0000 
     38 H           6.4734   14.4885   25.0990 H         1 PU51224     0.0000 
     39 H           5.5411    8.2014   23.8276 H         1 PU51224     0.0000 
     40 H           5.5824    6.6897   24.3745 H         1 PU51224     0.0000 
     41 H           5.1347    6.9843   22.8583 H         1 PU51224     0.0000 
     42 H           5.4322   16.0472   26.2510 H         1 PU51224     0.0000 
     43 H           5.0015   16.6437   24.8210 H         1 PU51224     0.0000 
     44 H           4.0776   16.9028   26.1116 H         1 PU51224     0.0000 
@<TRIPOS>BOND
     1    2    1 1    
     2   39    1 1    
     3   40    1 1    
     4   41    1 1    
     5    3    2 1    
     6   24    2 1    
     7   25    2 1    
     8    4    3 1    
     9   26    3 1    
    10   27    3 1    
    11    5    4 1    
    12   28    4 1    
    13   29    4 1    
    14    6    5 1    
    15   15    5 1    
    16    7    6 ar   
    17   11    6 ar   
    18    8    7 ar   
    19   10    8 ar   
    20   30    8 1    
    21   15    9 1    
    22   17    9 1    
    23   31    9 1    
    24   32    9 1    
    25   12   10 ar   
    26   12   11 ar   
    27   14   11 1    
    28   13   12 1    
    29   33   13 1    
    30   34   13 1    
    31   15   14 2    
    32   17   16 ar   
    33   19   16 ar   
    34   35   16 1    
    35   18   17 ar   
    36   21   18 ar   
    37   36   18 1    
    38   20   19 ar   
    39   37   19 1    
    40   21   20 ar   
    41   38   20 1    
    42   22   21 1    
    43   23   22 1    
    44   42   23 1    
    45   43   23 1    
    46   44   23 1    
@<TRIPOS>SUBSTRUCTURE
     1 PU51224     1 GROUP   
@<TRIPOS>SET

