#    Name: 2x9f_X9F_1_INTS_M
#    Modification time : Tue Mar 25 05:33:44 2014

@<TRIPOS>MOLECULE
2x9f_X9F_1_INTS_M
   71     0     9     0     0
SMALL
NO_CHARGES


@<TRIPOS>ATOM
      1 CA         13.2250    5.6835   13.6775 C.3       3 GLC5        0.0000 
      2 CA         13.6070    6.2540   11.8440 C.3       9 GLL5        0.0000 
      3 CA         12.8430    5.1130   15.5110 C.3       6 GLP5        0.0000 
      4 CA         15.3960    5.6040   10.9920 C.3       3 GLC5        0.0000 
      5 CA         17.1850    4.9540   10.1400 C.3       6 GLP5        0.0000 
      6 CA         13.2535    4.9375   10.4810 C.3       3 GLC5        0.0000 
      7 CA         12.9000    3.6210    9.1180 C.3       6 GLP5        0.0000 
      8 N          15.8980    5.2675   12.3600 N.am      2 SEC2        0.0000 
      9 N          14.4260    5.2380   12.1810 N.am      8 SEL2        0.0000 
     10 N          17.3700    5.2970   12.5390 N.am      5 SEP2        0.0000 
     11 CA         15.5435    4.4050   13.7145 C.3       3 GLC5        0.0000 
     12 CA         13.8820    4.0720   12.5410 C.3       9 GLL5        0.0000 
     13 CA         17.2050    4.7380   14.8880 C.3       6 GLP5        0.0000 
     14 CA         15.4755    3.7575   11.4240 C.3       3 GLC5        0.0000 
     15 CA         17.0690    3.4430   10.3070 C.3       6 GLP5        0.0000 
     16 CA         12.1900    1.8450   11.8795 C.3       3 GLC5        0.0000 
     17 CA         12.5350    3.8660   12.5780 C.3       9 GLL5        0.0000 
     18 CA         11.8450   -0.1760   11.1810 C.3       6 GLP5        0.0000 
     19 CA         10.3260    6.3660   13.1350 C.3       3 GLC5        0.0000 
     20 CA         11.7450    4.9470   12.2220 C.3       9 GLL5        0.0000 
     21 CA          8.9070    7.7850   14.0480 C.3       6 GLP5        0.0000 
     22 CA          6.7920    1.9810   13.7285 C.3       3 GLC5        0.0000 
     23 CA          8.4630    1.2770   13.7220 C.3       9 GLL5        0.0000 
     24 CA          5.1210    2.6850   13.7350 C.3       6 GLP5        0.0000 
     25 O           6.6870    0.1140   11.9035 O.2       1 ALC1        0.0000 
     26 O           8.1210    0.8430   11.2910 O.2       7 ALL1        0.0000 
     27 O           5.2530   -0.6150   12.5160 O.2       4 ALP1        0.0000 
     28 O           7.3945   -0.2655   11.1450 O.2       1 ALC1        0.0000 
     29 O           6.6680   -1.3740   10.9990 O.2       4 ALP1        0.0000 
     30 N           8.3200    0.4895    8.9170 N.am      2 SEC2        0.0000 
     31 N           8.4250    1.4300   10.1160 N.am      8 SEL2        0.0000 
     32 N           8.2150   -0.4510    7.7180 N.am      5 SEP2        0.0000 
     33 CA         16.4955   11.0375   13.4510 C.3       3 GLC5        0.0000 
     34 CA         15.9810   12.2770   12.4030 C.3       9 GLL5        0.0000 
     35 CA         17.0100    9.7980   14.4990 C.3       6 GLP5        0.0000 
     36 CA         12.0550   11.7825   12.4545 C.3       3 GLC5        0.0000 
     37 CA         12.5510   11.2060   10.6850 C.3       9 GLL5        0.0000 
     38 CA         11.5590   12.3590   14.2240 C.3       6 GLP5        0.0000 
     39 O          15.6055    7.6030   11.1920 O.2       1 ALC1        0.0000 
     40 O          14.2270    7.4510   11.4600 O.2       7 ALL1        0.0000 
     41 O          16.9840    7.7550   10.9240 O.2       4 ALP1        0.0000 
     42 CA         12.6599    4.7855   13.9509 C.3       3 GLC5        0.0000 
     43 CA         12.6884    4.0395   10.7544 C.3       3 GLC5        0.0000 
     44 CA          9.2850    5.6493   13.7120 C.3       3 GLC5        0.0000 
     45 CA          9.7150    3.6510   12.7000 C.3       9 GLL5        0.0000 
     46 CA         11.2530    4.3133   14.4435 C.3       3 GLC5        0.0000 
     47 CA         10.3798    1.2452   14.7685 C.3       3 GLC5        0.0000 
     48 CA          9.6110    3.3760   14.0520 C.3       9 GLL5        0.0000 
     49 CA         11.4450   -0.3120   15.2370 C.3       6 GLP5        0.0000 
     50 CA          7.5537    3.3301   14.2720 C.3       3 GLC5        0.0000 
     51 CA          9.0180    2.2290   14.5480 C.3       9 GLL5        0.0000 
     52 CA          5.7670    3.7890   14.5820 C.3       6 GLP5        0.0000 
     53 CA          8.2043    0.2840   15.5470 C.3       3 GLC5        0.0000 
     54 CA          7.6680   -1.1850   16.9590 C.3       6 GLP5        0.0000 
     55 CA          8.9980   -0.6903   12.9642 C.3       3 GLC5        0.0000 
     56 CA          9.4840   -2.7970   12.8810 C.3       6 GLP5        0.0000 
     57 CA          9.9785    0.5522   14.1423 C.3       3 GLC5        0.0000 
     58 CA          8.5610    1.5560   12.3730 C.3       9 GLL5        0.0000 
     59 CA          7.0540    2.5352   12.1690 C.3       3 GLC5        0.0000 
     60 CA          5.2430    2.9450   12.2280 C.3       6 GLP5        0.0000 
     61 CA         10.3428    0.9399   11.8141 C.3       3 GLC5        0.0000 
     62 CA          9.1690    2.6950   11.8470 C.3       9 GLL5        0.0000 
     63 CA         14.0725   10.1390    9.3265 C.3       3 GLC5        0.0000 
     64 CA         13.8890   11.0660   10.9830 C.3       9 GLL5        0.0000 
     65 CA         14.9250    9.1420    7.8190 C.3       6 GLP5        0.0000 
     66 CA         13.4715    9.3015    9.2935 C.3       3 GLC5        0.0000 
     67 CA         12.2880    8.8370   10.8940 C.3       9 GLL5        0.0000 
     68 CA         14.4775    9.2018    9.5190 C.3       3 GLC5        0.0000 
     69 CA         13.6260    8.7000   11.2010 C.3       9 GLL5        0.0000 
     70 CA         12.6424    9.7213   12.7059 C.3       3 GLC5        0.0000 
     71 CA         12.3290    9.9260   14.4500 C.3       6 GLP5        0.0000 
@<TRIPOS>BOND
@<TRIPOS>SUBSTRUCTURE
     1 ALC1       25 GROUP        1 X    ALC  0     ROOT ALC X 1
     2 SEC2        8 GROUP        1 X    SEC  0     **** SEC X 2
     3 GLC5        1 GROUP        1 X    GLC  0     **** GLC X 6
     4 ALP1       27 GROUP        1 Y    ALP  0     ROOT ALP Y 8
     5 SEP2       10 GROUP        1 Y    SEP  0     **** SEP Y 9
     6 GLP5        3 GROUP        1 Y    GLP  0     **** GLP Y 13
     7 ALL1       26 GROUP        1 Z    ALL  0     ROOT ALL Z 15
     8 SEL2        9 GROUP        1 Z    SEL  0     **** SEL Z 16
     9 GLL5        2 GROUP        1 Z    GLL  0     **** GLL Z 20
@<TRIPOS>SET

