#    Name: 2x9f_X9F_1_ligand
#    Modification time : Tue Mar 25 05:33:44 2014

@<TRIPOS>MOLECULE
2x9f_X9F_1_ligand
   43    46     1     0     0
SMALL
NO_CHARGES


@<TRIPOS>ATOM
      1 C7         13.6070    6.2540   11.8440 C.ar      1 X9F1889     0.0000 
      2 N2         14.4260    5.2380   12.1810 N.ar      1 X9F1889     0.0000 
      3 C8         13.8820    4.0720   12.5410 C.ar      1 X9F1889     0.0000 
      4 C9         12.5350    3.8660   12.5780 C.ar      1 X9F1889     0.0000 
      5 C10        11.7450    4.9470   12.2220 C.ar      1 X9F1889     0.0000 
      6 N3         10.3380    4.8170   12.2310 N.pl3     1 X9F1889     0.0000 
      7 C11         9.7150    3.6510   12.7000 C.ar      1 X9F1889     0.0000 
      8 C12         9.6110    3.3760   14.0520 C.ar      1 X9F1889     0.0000 
      9 C13         9.0180    2.2290   14.5480 C.ar      1 X9F1889     0.0000 
     10 C14         8.4630    1.2770   13.7220 C.ar      1 X9F1889     0.0000 
     11 C15         8.5610    1.5560   12.3730 C.ar      1 X9F1889     0.0000 
     12 N4          8.1210    0.8430   11.2910 N.pl3     1 X9F1889     0.0000 
     13 N5          8.4250    1.4300   10.1160 N.2       1 X9F1889     0.0000 
     14 C16         9.0580    2.5710   10.4350 C.2       1 X9F1889     0.0000 
     15 C17         9.1690    2.6950   11.8470 C.ar      1 X9F1889     0.0000 
     16 N6         12.2710    6.1220   11.8590 N.ar      1 X9F1889     0.0000 
     17 C1         15.9810   12.2770   12.4030 C.3       1 X9F1889     0.0000 
     18 S1         14.9290   12.5190   11.0440 S.o2      1 X9F1889     0.0000 
     19 O1         15.7150   12.5050    9.8180 O.2       1 X9F1889     0.0000 
     20 O2         14.0600   13.6550   11.3180 O.2       1 X9F1889     0.0000 
     21 C2         13.8890   11.0660   10.9830 C.ar      1 X9F1889     0.0000 
     22 C3         12.5510   11.2060   10.6850 C.ar      1 X9F1889     0.0000 
     23 C4         11.7480   10.0850   10.6420 C.ar      1 X9F1889     0.0000 
     24 C5         12.2880    8.8370   10.8940 C.ar      1 X9F1889     0.0000 
     25 C6         13.6260    8.7000   11.2010 C.ar      1 X9F1889     0.0000 
     26 N1         14.2270    7.4510   11.4600 N.pl3     1 X9F1889     0.0000 
     27 C18        14.4340    9.8230   11.2370 C.ar      1 X9F1889     0.0000 
     28 H          14.5156    3.2650   12.8116 H         1 X9F1889     0.0000 
     29 H          12.1280    2.9855   12.8463 H         1 X9F1889     0.0000 
     30 H           9.7602    5.5991   11.8842 H         1 X9F1889     0.0000 
     31 H          10.0024    4.0740   14.7366 H         1 X9F1889     0.0000 
     32 H           8.9916    2.0824   15.5835 H         1 X9F1889     0.0000 
     33 H           8.0254    0.4523   14.0680 H         1 X9F1889     0.0000 
     34 H           7.6306   -0.0149   11.3738 H         1 X9F1889     0.0000 
     35 H           9.4034    3.2375    9.8273 H         1 X9F1889     0.0000 
     36 H          12.1548   12.1350   10.4967 H         1 X9F1889     0.0000 
     37 H          10.7444   10.1761   10.4220 H         1 X9F1889     0.0000 
     38 H          11.6814    7.9989   10.8515 H         1 X9F1889     0.0000 
     39 H          15.3028    7.4152   11.3472 H         1 X9F1889     0.0000 
     40 H          15.4358    9.7306   11.4521 H         1 X9F1889     0.0000 
     41 H          16.4663   11.4045   12.3463 H         1 X9F1889     0.0000 
     42 H          16.6746   12.9944   12.4682 H         1 X9F1889     0.0000 
     43 H          15.4775   12.2767   13.2670 H         1 X9F1889     0.0000 
@<TRIPOS>BOND
     1    2    1 ar   
     2   16    1 ar   
     3   26    1 1    
     4    3    2 ar   
     5    4    3 ar   
     6   28    3 1    
     7    5    4 ar   
     8   29    4 1    
     9    6    5 1    
    10   16    5 ar   
    11    7    6 1    
    12   30    6 1    
    13    8    7 ar   
    14   15    7 ar   
    15    9    8 ar   
    16   31    8 1    
    17   10    9 ar   
    18   32    9 1    
    19   11   10 ar   
    20   33   10 1    
    21   12   11 1    
    22   15   11 ar   
    23   13   12 1    
    24   34   12 1    
    25   14   13 2    
    26   15   14 1    
    27   35   14 1    
    28   18   17 1    
    29   41   17 1    
    30   42   17 1    
    31   43   17 1    
    32   19   18 2    
    33   20   18 2    
    34   21   18 1    
    35   22   21 ar   
    36   27   21 ar   
    37   23   22 ar   
    38   36   22 1    
    39   24   23 ar   
    40   37   23 1    
    41   25   24 ar   
    42   38   24 1    
    43   26   25 1    
    44   27   25 ar   
    45   39   26 1    
    46   40   27 1    
@<TRIPOS>SUBSTRUCTURE
     1 X9F1889     1 GROUP   
@<TRIPOS>SET

