#    Name: 4b8s_AMP_1_INTS_M
#    Modification time : Tue Mar 25 07:06:17 2014

@<TRIPOS>MOLECULE
4b8s_AMP_1_INTS_M
   42     0     9     0     0
SMALL
NO_CHARGES


@<TRIPOS>ATOM
      1 N          58.7630   28.2055   -3.6675 N.am      2 SEC2        0.0000 
      2 N          59.7100   27.1410   -3.6830 N.am      8 SEL2        0.0000 
      3 N          57.8160   29.2700   -3.6520 N.am      5 SEP2        0.0000 
      4 N          60.9345   27.6075   -3.8195 N.am      2 SEC2        0.0000 
      5 N          62.1590   28.0740   -3.9560 N.am      5 SEP2        0.0000 
      6 N          61.3655   26.8520   -4.6840 N.am      2 SEC2        0.0000 
      7 N          60.5720   25.6300   -5.4120 N.am      8 SEL2        0.0000 
      8 CA         62.8880   23.4910   -7.6335 C.3       3 GLC5        0.0000 
      9 CA         61.7270   25.3820   -7.3650 C.3       9 GLL5        0.0000 
     10 CA         64.0490   21.6000   -7.9020 C.3       6 GLP5        0.0000 
     11 CA         63.6235   25.2815   -7.0160 C.3       3 GLC5        0.0000 
     12 CA         65.5200   25.1810   -6.6670 C.3       6 GLP5        0.0000 
     13 CA         61.4515   26.3885  -11.3925 C.3       3 GLC5        0.0000 
     14 CA         62.5400   26.1360   -9.4670 C.3       9 GLL5        0.0000 
     15 CA         60.3630   26.6410  -13.3180 C.3       6 GLP5        0.0000 
     16 O          63.5880   28.2800   -9.7325 O.2       1 ALC1        0.0000 
     17 O          63.6470   27.0250   -9.2210 O.2       7 ALL1        0.0000 
     18 O          63.5290   29.5350  -10.2440 O.2       4 ALP1        0.0000 
     19 CA         63.4950   23.1390   -8.5575 C.3       3 GLC5        0.0000 
     20 CA         62.9410   24.6780   -9.2130 C.3       9 GLL5        0.0000 
     21 CA         63.6100   19.8965  -12.6665 C.3       3 GLC5        0.0000 
     22 CA         62.7680   21.7230  -13.2060 C.3       9 GLL5        0.0000 
     23 CA         64.4520   18.0700  -12.1270 C.3       6 GLP5        0.0000 
     24 O          62.3245   20.5860  -15.4460 O.2       1 ALC1        0.0000 
     25 O          61.9820   21.0050  -14.0510 O.2       7 ALL1        0.0000 
     26 O          62.6670   20.1670  -16.8410 O.2       4 ALP1        0.0000 
     27 N          64.6420   21.6380  -14.7595 N.am      2 SEC2        0.0000 
     28 N          64.1100   21.7730  -13.3670 N.am      8 SEL2        0.0000 
     29 N          65.1740   21.5030  -16.1520 N.am      5 SEP2        0.0000 
     30 CA         66.7490   21.2065  -12.3040 C.3       3 GLC5        0.0000 
     31 CA         64.9190   22.4540  -12.5460 C.3       9 GLL5        0.0000 
     32 CA         68.5790   19.9590  -12.0620 C.3       6 GLP5        0.0000 
     33 CA         64.6855   20.2620  -12.3365 C.3       3 GLC5        0.0000 
     34 CA         65.2930   23.1700  -14.3010 C.3       3 GLC5        0.0000 
     35 CA         65.6670   23.8860  -16.0560 C.3       6 GLP5        0.0000 
     36 CA         63.5945   22.4065   -9.5675 C.3       3 GLC5        0.0000 
     37 CA         63.1400   23.2130  -11.2330 C.3       9 GLL5        0.0000 
     38 CA         62.0595   24.3697   -5.2588 C.3       3 GLC5        0.0000 
     39 CA         63.0120   23.5790   -3.5160 C.3       6 GLP5        0.0000 
     40 CA         61.9905   27.0931   -6.4419 C.3       3 GLC5        0.0000 
     41 CA         62.7130   28.4160   -5.1480 C.3       6 GLP5        0.0000 
     42 CA         64.1303   25.2940   -8.0035 C.3       3 GLC5        0.0000 
@<TRIPOS>BOND
@<TRIPOS>SUBSTRUCTURE
     1 ALC1       16 GROUP        1 X    ALC  0     ROOT ALC X 1
     2 SEC2        1 GROUP        1 X    SEC  0     **** SEC X 2
     3 GLC5        8 GROUP        1 X    GLC  0     **** GLC X 6
     4 ALP1       18 GROUP        1 Y    ALP  0     ROOT ALP Y 8
     5 SEP2        3 GROUP        1 Y    SEP  0     **** SEP Y 9
     6 GLP5       10 GROUP        1 Y    GLP  0     **** GLP Y 13
     7 ALL1       17 GROUP        1 Z    ALL  0     ROOT ALL Z 15
     8 SEL2        2 GROUP        1 Z    SEL  0     **** SEL Z 16
     9 GLL5        9 GROUP        1 Z    GLL  0     **** GLL Z 20
@<TRIPOS>SET

