#    Name: 4b8s_AMP_1_ligand
#    Modification time : Tue Mar 25 07:06:17 2014

@<TRIPOS>MOLECULE
4b8s_AMP_1_ligand
   35    37     1     0     0
SMALL
NO_CHARGES


@<TRIPOS>ATOM
      1 P          59.2710   25.9720   -4.5400 P.3       1 AMP1472     0.0000 
      2 O1P        59.0500   24.6700   -3.7770 O.co2     1 AMP1472     0.0000 
      3 O2P        59.7100   27.1410   -3.6830 O.co2     1 AMP1472     0.0000 
      4 O3P        58.2350   26.3530   -5.5860 O.co2     1 AMP1472     0.0000 
      5 O5'        60.5720   25.6300   -5.4120 O.3       1 AMP1472     0.0000 
      6 C5'        60.4870   24.9390   -6.6380 C.3       1 AMP1472     0.0000 
      7 C4'        61.7270   25.3820   -7.3650 C.3       1 AMP1472     0.0000 
      8 O4'        62.3520   24.2630   -7.9790 O.3       1 AMP1472     0.0000 
      9 C3'        61.4290   26.3800   -8.4700 C.3       1 AMP1472     0.0000 
     10 O3'        61.4280   27.7130   -7.9490 O.3       1 AMP1472     0.0000 
     11 C2'        62.5400   26.1360   -9.4670 C.3       1 AMP1472     0.0000 
     12 O2'        63.6470   27.0250   -9.2210 O.3       1 AMP1472     0.0000 
     13 C1'        62.9410   24.6780   -9.2130 C.3       1 AMP1472     0.0000 
     14 N9         62.4010   23.8050  -10.2850 N.pl3     1 AMP1472     0.0000 
     15 C8         61.0920   23.4830  -10.4710 C.2       1 AMP1472     0.0000 
     16 N7         60.9620   22.6810  -11.5600 N.2       1 AMP1472     0.0000 
     17 C5         62.1940   22.4680  -12.0720 C.ar      1 AMP1472     0.0000 
     18 C6         62.7680   21.7230  -13.2060 C.ar      1 AMP1472     0.0000 
     19 N6         61.9820   21.0050  -14.0510 N.pl3     1 AMP1472     0.0000 
     20 N1         64.1100   21.7730  -13.3670 N.ar      1 AMP1472     0.0000 
     21 C2         64.9190   22.4540  -12.5460 C.ar      1 AMP1472     0.0000 
     22 N3         64.4560   23.1680  -11.5130 N.ar      1 AMP1472     0.0000 
     23 C4         63.1400   23.2130  -11.2330 C.ar      1 AMP1472     0.0000 
     24 H          59.6285   25.2295   -7.2155 H         1 AMP1472     0.0000 
     25 H          60.5254   23.8724   -6.5127 H         1 AMP1472     0.0000 
     26 H          62.4028   25.8520   -6.6636 H         1 AMP1472     0.0000 
     27 H          60.5030   26.0997   -8.9186 H         1 AMP1472     0.0000 
     28 H          62.1473   26.2088  -10.4441 H         1 AMP1472     0.0000 
     29 H          63.9999   24.6135   -9.1827 H         1 AMP1472     0.0000 
     30 H          60.3595   23.7829   -9.9076 H         1 AMP1472     0.0000 
     31 H          61.1206   20.6680  -13.6711 H         1 AMP1472     0.0000 
     32 H          62.3345   20.8772  -14.9780 H         1 AMP1472     0.0000 
     33 H          65.9660   22.4266  -12.7208 H         1 AMP1472     0.0000 
     34 H          62.3473   28.0622   -8.1301 H         1 AMP1472     0.0000 
     35 H          63.7018   27.6015  -10.0362 H         1 AMP1472     0.0000 
@<TRIPOS>BOND
     1    2    1 ar   
     2    3    1 ar   
     3    4    1 ar   
     4    5    1 1    
     5    6    5 1    
     6    7    6 1    
     7   24    6 1    
     8   25    6 1    
     9    8    7 1    
    10    9    7 1    
    11   26    7 1    
    12   13    8 1    
    13   10    9 1    
    14   11    9 1    
    15   27    9 1    
    16   34   10 1    
    17   12   11 1    
    18   13   11 1    
    19   28   11 1    
    20   35   12 1    
    21   14   13 1    
    22   29   13 1    
    23   15   14 1    
    24   23   14 1    
    25   16   15 2    
    26   30   15 1    
    27   17   16 1    
    28   18   17 ar   
    29   23   17 ar   
    30   19   18 1    
    31   20   18 ar   
    32   31   19 1    
    33   32   19 1    
    34   21   20 ar   
    35   22   21 ar   
    36   33   21 1    
    37   23   22 ar   
@<TRIPOS>SUBSTRUCTURE
     1 AMP1472     1 GROUP   
@<TRIPOS>SET

