#    Name: 4dij_BLF_2_INTS_M
#    Modification time : Mon Apr  7 22:46:08 2014

@<TRIPOS>MOLECULE
4dij_BLF_2_INTS_M
   74     0     6     0     0
SMALL
NO_CHARGES


@<TRIPOS>ATOM
      1 CA         11.2005    7.3060    1.3005 C.3       2 GLC5        0.0000 
      2 CA         11.2010    5.4770    2.2200 C.3       6 GLL5        0.0000 
      3 CA         11.2000    9.1350    0.3810 C.3       4 GLP5        0.0000 
      4 CA         10.5800    7.0965    3.1640 C.3       2 GLC5        0.0000 
      5 CA          9.9590    8.7160    4.1080 C.3       4 GLP5        0.0000 
      6 CA          9.8660    5.5325    0.8390 C.3       2 GLC5        0.0000 
      7 CA          8.5310    5.5880   -0.5420 C.3       4 GLP5        0.0000 
      8 CA          4.9175    3.0530   -0.4930 C.3       2 GLC5        0.0000 
      9 CA          6.6230    2.3720   -0.3370 C.3       6 GLL5        0.0000 
     10 CA          3.2120    3.7340   -0.6490 C.3       4 GLP5        0.0000 
     11 CA          7.5770    3.9800   -0.4395 C.3       2 GLC5        0.0000 
     12 CA          6.8145    2.4225   -2.2460 C.3       2 GLC5        0.0000 
     13 CA          7.0060    2.4730   -4.1550 C.3       4 GLP5        0.0000 
     14 O          12.3355    0.3510    2.6180 O.2       1 ALC1        0.0000 
     15 O          11.2920    0.4440    3.5090 O.2       5 ALL1        0.0000 
     16 O          13.3790    0.2580    1.7270 O.2       3 ALP1        0.0000 
     17 CA          8.0680    4.9170    2.9940 C.3       2 GLC5        0.0000 
     18 CA          9.6350    4.1660    4.0590 C.3       6 GLL5        0.0000 
     19 CA          6.5010    5.6680    1.9290 C.3       4 GLP5        0.0000 
     20 CA          7.1860    2.3700    6.9805 C.3       2 GLC5        0.0000 
     21 CA          8.4720    0.6020    7.2950 C.3       6 GLL5        0.0000 
     22 CA          5.9000    4.1380    6.6660 C.3       4 GLP5        0.0000 
     23 CA         12.3830    1.3285    6.6645 C.3       2 GLC5        0.0000 
     24 CA         10.6820    1.4670    8.0480 C.3       6 GLL5        0.0000 
     25 CA         14.0840    1.1900    5.2810 C.3       4 GLP5        0.0000 
     26 CA         12.4810    0.7205   10.1620 C.3       2 GLC5        0.0000 
     27 CA         11.4800    2.2250    8.9190 C.3       6 GLL5        0.0000 
     28 CA         13.4820   -0.7840   11.4050 C.3       4 GLP5        0.0000 
     29 CA          4.8965    1.4065    0.7560 C.3       2 GLC5        0.0000 
     30 CA          6.8080    1.3450    1.0600 C.3       6 GLL5        0.0000 
     31 CA          2.9850    1.4680    0.4520 C.3       4 GLP5        0.0000 
     32 CA         12.3905   -3.9150    6.7235 C.3       2 GLC5        0.0000 
     33 CA         10.7710   -3.9340    5.5710 C.3       6 GLL5        0.0000 
     34 CA         14.0100   -3.8960    7.8760 C.3       4 GLP5        0.0000 
     35 CA         11.6735   -3.8875    8.0395 C.3       2 GLC5        0.0000 
     36 CA         10.3820   -4.5720    6.9280 C.3       6 GLL5        0.0000 
     37 CA         12.9650   -3.2030    9.1510 C.3       4 GLP5        0.0000 
     38 CA         10.6010    3.4735    1.0475 C.3       2 GLC5        0.0000 
     39 CA         10.6710    4.0590    3.1120 C.3       6 GLL5        0.0000 
     40 CA         10.2660    2.1790   -0.5710 C.3       4 GLP5        0.0000 
     41 CA         10.6787    2.2280    1.3197 C.3       2 GLC5        0.0000 
     42 CA         11.3140    2.8350    2.8530 C.3       6 GLL5        0.0000 
     43 CA         12.9300    3.7743    2.1603 C.3       2 GLC5        0.0000 
     44 CA         14.7350    3.7470    1.5610 C.3       4 GLP5        0.0000 
     45 CA         11.8445    4.8202    4.2127 C.3       2 GLC5        0.0000 
     46 CA         12.5640    5.8390    5.6660 C.3       4 GLP5        0.0000 
     47 CA         12.1288    0.6160    4.9860 C.3       2 GLC5        0.0000 
     48 CA          9.7140    0.4100    5.0310 C.3       6 GLL5        0.0000 
     49 CA         12.2766    1.6195    4.5679 C.3       2 GLC5        0.0000 
     50 CA          9.8470    1.8210    4.4990 C.3       6 GLL5        0.0000 
     51 CA         10.9907    4.7203    5.0428 C.3       2 GLC5        0.0000 
     52 CA          9.2000    3.0370    4.7800 C.3       6 GLL5        0.0000 
     53 CA          8.2658    4.2313    5.8382 C.3       2 GLC5        0.0000 
     54 CA          7.1140    4.8610    7.2570 C.3       4 GLP5        0.0000 
     55 CA         12.0755    4.1013    9.0987 C.3       2 GLC5        0.0000 
     56 CA         10.8820    2.9400    9.9640 C.3       6 GLL5        0.0000 
     57 CA         12.9700    5.6200    8.7560 C.3       4 GLP5        0.0000 
     58 CA         10.2852    4.5643   11.2257 C.3       2 GLC5        0.0000 
     59 CA         10.3830    6.2060   12.3930 C.3       4 GLP5        0.0000 
     60 CA          8.1785    3.6054    8.3556 C.3       2 GLC5        0.0000 
     61 CA          9.4930    2.9050   10.1530 C.3       6 GLL5        0.0000 
     62 CA          4.6913    1.6193    2.3085 C.3       2 GLC5        0.0000 
     63 CA          6.5310    0.9590    3.4230 C.3       6 GLL5        0.0000 
     64 CA          2.9220    1.8590    1.7480 C.3       4 GLP5        0.0000 
     65 CA          6.5500    3.6202    1.8082 C.3       2 GLC5        0.0000 
     66 CA          6.3900    1.8000    2.3150 C.3       6 GLL5        0.0000 
     67 CA          8.6519    1.5709    0.0294 C.3       2 GLC5        0.0000 
     68 CA         11.2543   -5.7945    5.9578 C.3       2 GLC5        0.0000 
     69 CA         11.9320   -7.3360    5.6660 C.3       4 GLP5        0.0000 
     70 CA         11.1073   -3.2172    9.3283 C.3       2 GLC5        0.0000 
     71 CA          9.7820   -3.6080    9.0920 C.3       6 GLL5        0.0000 
     72 CA          6.6967   -5.7912    7.4100 C.3       2 GLC5        0.0000 
     73 CA          8.0060   -4.3950    7.5740 C.3       6 GLL5        0.0000 
     74 CA          5.8950   -7.5960    6.8280 C.3       4 GLP5        0.0000 
@<TRIPOS>BOND
@<TRIPOS>SUBSTRUCTURE
     1 ALC1       14 GROUP        1 X    ALC  0     ROOT ALC X 1
     2 GLC5        1 GROUP        1 X    GLC  0     **** GLC X 6
     3 ALP1       16 GROUP        1 Y    ALP  0     ROOT ALP Y 8
     4 GLP5        3 GROUP        1 Y    GLP  0     **** GLP Y 13
     5 ALL1       15 GROUP        1 Z    ALL  0     ROOT ALL Z 15
     6 GLL5        2 GROUP        1 Z    GLL  0     **** GLL Z 20
@<TRIPOS>SET

