#    Name: 4dij_BLF_2_ligand
#    Modification time : Mon Apr  7 22:46:08 2014

@<TRIPOS>MOLECULE
4dij_BLF_2_ligand
   70    75     1     0     0
SMALL
NO_CHARGES


@<TRIPOS>ATOM
      1 CL1        11.2010    5.4770    2.2200 Cl        1 BLF201      0.0000 
      2 C2         10.6710    4.0590    3.1120 C.ar      1 BLF201      0.0000 
      3 CL2         6.6230    2.3720   -0.3370 Cl        1 BLF201      0.0000 
      4 C3         11.3140    2.8350    2.8530 C.ar      1 BLF201      0.0000 
      5 C5         10.8690    1.7190    3.5680 C.ar      1 BLF201      0.0000 
      6 N6         11.2920    0.4440    3.5090 N.pl3     1 BLF201      0.0000 
      7 C8         10.6330   -0.3260    4.3510 C.2       1 BLF201      0.0000 
      8 C9          9.7140    0.4100    5.0310 C.2       1 BLF201      0.0000 
      9 C10         9.8470    1.8210    4.4990 C.ar      1 BLF201      0.0000 
     10 C11         9.2000    3.0370    4.7800 C.ar      1 BLF201      0.0000 
     11 C13         9.6350    4.1660    4.0590 C.ar      1 BLF201      0.0000 
     12 C15         8.6450    0.1340    6.0300 C.2       1 BLF201      0.0000 
     13 N16         7.5540   -0.5640    5.7220 N.pl3     1 BLF201      0.0000 
     14 C17         6.7380   -0.6170    6.7420 C.2       1 BLF201      0.0000 
     15 N19         7.2080    0.0480    7.6950 N.2       1 BLF201      0.0000 
     16 C20         8.4720    0.6020    7.2950 C.2       1 BLF201      0.0000 
     17 C21         9.2920    1.4370    8.2270 C.ar      1 BLF201      0.0000 
     18 C22        10.6820    1.4670    8.0480 C.ar      1 BLF201      0.0000 
     19 C24        11.4800    2.2250    8.9190 C.ar      1 BLF201      0.0000 
     20 C26        10.8820    2.9400    9.9640 C.ar      1 BLF201      0.0000 
     21 C28         9.4930    2.9050   10.1530 C.ar      1 BLF201      0.0000 
     22 C30         8.6940    2.1520    9.2840 C.ar      1 BLF201      0.0000 
     23 C32         7.2670   -1.2640    4.4620 C.3       1 BLF201      0.0000 
     24 C35         7.0920   -0.3150    3.2760 C.ar      1 BLF201      0.0000 
     25 C36         6.5310    0.9590    3.4230 C.ar      1 BLF201      0.0000 
     26 C38         6.3900    1.8000    2.3150 C.ar      1 BLF201      0.0000 
     27 C40         6.8080    1.3450    1.0600 C.ar      1 BLF201      0.0000 
     28 C41         7.3600    0.0670    0.8980 C.ar      1 BLF201      0.0000 
     29 C43         7.5070   -0.7640    2.0170 C.ar      1 BLF201      0.0000 
     30 C46        10.9070   -1.7710    4.4780 C.2       1 BLF201      0.0000 
     31 O47        11.5760   -2.2650    3.5750 O.2       1 BLF201      0.0000 
     32 N48        10.4660   -2.5070    5.5210 N.am      1 BLF201      0.0000 
     33 C50        10.7710   -3.9340    5.5710 C.3       1 BLF201      0.0000 
     34 C53        10.3820   -4.5720    6.9280 C.3       1 BLF201      0.0000 
     35 N56         9.3620   -3.8000    7.6800 N.4       1 BLF201      0.0000 
     36 C57         9.7820   -3.6080    9.0920 C.3       1 BLF201      0.0000 
     37 C60         8.7170   -2.8550    9.9190 C.3       1 BLF201      0.0000 
     38 O63         7.4380   -3.4900    9.7760 O.3       1 BLF201      0.0000 
     39 C64         6.9910   -3.5780    8.4100 C.3       1 BLF201      0.0000 
     40 C67         8.0060   -4.3950    7.5740 C.3       1 BLF201      0.0000 
     41 H          12.0591    2.7699    2.1836 H         1 BLF201      0.0000 
     42 H          12.0137    0.1353    2.9003 H         1 BLF201      0.0000 
     43 H           8.4678    3.0986    5.4573 H         1 BLF201      0.0000 
     44 H           9.1911    5.0775    4.2263 H         1 BLF201      0.0000 
     45 H           5.8739   -1.1220    6.7323 H         1 BLF201      0.0000 
     46 H          11.1136    0.9391    7.2862 H         1 BLF201      0.0000 
     47 H          12.4940    2.2541    8.7897 H         1 BLF201      0.0000 
     48 H          11.4680    3.4979   10.6011 H         1 BLF201      0.0000 
     49 H           9.0666    3.4270   10.9218 H         1 BLF201      0.0000 
     50 H           7.6809    2.1184    9.4123 H         1 BLF201      0.0000 
     51 H           6.3457   -1.8665    4.5572 H         1 BLF201      0.0000 
     52 H           8.0821   -1.9692    4.2188 H         1 BLF201      0.0000 
     53 H           6.2216    1.2770    4.3499 H         1 BLF201      0.0000 
     54 H           5.9888    2.7306    2.4198 H         1 BLF201      0.0000 
     55 H           7.6517   -0.2550   -0.0246 H         1 BLF201      0.0000 
     56 H           7.9167   -1.6961    1.9129 H         1 BLF201      0.0000 
     57 H           9.9218   -2.1163    6.2905 H         1 BLF201      0.0000 
     58 H          11.8461   -4.1141    5.4165 H         1 BLF201      0.0000 
     59 H          10.2330   -4.4812    4.7816 H         1 BLF201      0.0000 
     60 H          11.3034   -4.6753    7.5275 H         1 BLF201      0.0000 
     61 H          10.0173   -5.5945    6.7267 H         1 BLF201      0.0000 
     62 H           9.3156   -2.7811    7.2147 H         1 BLF201      0.0000 
     63 H          10.7166   -3.0345    9.1383 H         1 BLF201      0.0000 
     64 H           9.9624   -4.5781    9.5726 H         1 BLF201      0.0000 
     65 H           8.6989   -1.8185    9.5646 H         1 BLF201      0.0000 
     66 H           9.0545   -2.8494   10.9613 H         1 BLF201      0.0000 
     67 H           6.9041   -2.5912    7.9470 H         1 BLF201      0.0000 
     68 H           6.0226   -4.0796    8.3313 H         1 BLF201      0.0000 
     69 H           8.0052   -5.4193    7.9464 H         1 BLF201      0.0000 
     70 H           7.6672   -4.3982    6.5381 H         1 BLF201      0.0000 
@<TRIPOS>BOND
     1    2    1 1    
     2    4    2 ar   
     3   11    2 ar   
     4   27    3 1    
     5    5    4 ar   
     6   41    4 1    
     7    6    5 1    
     8    9    5 ar   
     9    7    6 1    
    10   42    6 1    
    11    8    7 2    
    12   30    7 1    
    13    9    8 1    
    14   12    8 1    
    15   10    9 ar   
    16   11   10 ar   
    17   43   10 1    
    18   44   11 1    
    19   13   12 1    
    20   16   12 2    
    21   14   13 1    
    22   23   13 1    
    23   15   14 2    
    24   45   14 1    
    25   16   15 1    
    26   17   16 1    
    27   18   17 ar   
    28   22   17 ar   
    29   19   18 ar   
    30   46   18 1    
    31   20   19 ar   
    32   47   19 1    
    33   21   20 ar   
    34   48   20 1    
    35   22   21 ar   
    36   49   21 1    
    37   50   22 1    
    38   24   23 1    
    39   51   23 1    
    40   52   23 1    
    41   25   24 ar   
    42   29   24 ar   
    43   26   25 ar   
    44   53   25 1    
    45   27   26 ar   
    46   54   26 1    
    47   28   27 ar   
    48   29   28 ar   
    49   55   28 1    
    50   56   29 1    
    51   31   30 2    
    52   32   30 am   
    53   33   32 1    
    54   57   32 1    
    55   34   33 1    
    56   58   33 1    
    57   59   33 1    
    58   35   34 1    
    59   60   34 1    
    60   61   34 1    
    61   36   35 1    
    62   40   35 1    
    63   62   35 1    
    64   37   36 1    
    65   63   36 1    
    66   64   36 1    
    67   38   37 1    
    68   65   37 1    
    69   66   37 1    
    70   39   38 1    
    71   40   39 1    
    72   67   39 1    
    73   68   39 1    
    74   69   40 1    
    75   70   40 1    
@<TRIPOS>SUBSTRUCTURE
     1 BLF201      1 GROUP   
@<TRIPOS>SET

