#    Name: 3vhv_LD1_1_INTS_M
#    Modification time : Tue Mar 25 00:53:57 2014

@<TRIPOS>MOLECULE
3vhv_LD1_1_INTS_M
   68     0     9     0     0
SMALL
NO_CHARGES


@<TRIPOS>ATOM
      1 CA         -3.3680   17.5805   -9.7725 C.3       3 GLC5        0.0000 
      2 CA         -2.5360   16.2090   -8.3920 C.3       9 GLL5        0.0000 
      3 CA         -4.2000   18.9520  -11.1530 C.3       6 GLP5        0.0000 
      4 CA         -4.3925   18.2440   -5.8535 C.3       3 GLC5        0.0000 
      5 CA         -3.3750   16.5530   -6.2070 C.3       9 GLL5        0.0000 
      6 CA         -5.4100   19.9350   -5.5000 C.3       6 GLP5        0.0000 
      7 CA          0.5880   14.9770   -9.2345 C.3       3 GLC5        0.0000 
      8 CA         -0.4220   16.7090   -9.9990 C.3       9 GLL5        0.0000 
      9 CA          1.5980   13.2450   -8.4700 C.3       6 GLP5        0.0000 
     10 CA          0.5550   16.3330   -8.1195 C.3       3 GLC5        0.0000 
     11 CA          1.5320   15.9570   -6.2400 C.3       6 GLP5        0.0000 
     12 CA          1.1395   17.3965   -9.5615 C.3       3 GLC5        0.0000 
     13 CA          2.7010   18.0840   -9.1240 C.3       6 GLP5        0.0000 
     14 CA         -1.0870   18.4620  -10.6820 C.3       3 GLC5        0.0000 
     15 CA         -1.7520   20.2150  -11.3650 C.3       6 GLP5        0.0000 
     16 CA          0.2070   17.0595  -11.8100 C.3       3 GLC5        0.0000 
     17 CA          0.8360   17.4100  -13.6210 C.3       6 GLP5        0.0000 
     18 O          -3.3345   14.5085   -9.8060 O.2       1 ALC1        0.0000 
     19 O          -2.4350   15.4530   -9.5600 O.2       7 ALL1        0.0000 
     20 O          -4.2340   13.5640  -10.0520 O.2       4 ALP1        0.0000 
     21 N          -2.3120   13.9205  -11.7280 N.am      2 SEC2        0.0000 
     22 N          -1.2800   15.0150  -11.4690 N.am      8 SEL2        0.0000 
     23 N          -3.3440   12.8260  -11.9870 N.am      5 SEP2        0.0000 
     24 CA         -7.4360   16.6985   -2.6260 C.3       3 GLC5        0.0000 
     25 CA         -5.6050   16.5570   -2.6980 C.3       9 GLL5        0.0000 
     26 CA         -9.2670   16.8400   -2.5540 C.3       6 GLP5        0.0000 
     27 CA         -6.0905   17.7420   -1.1655 C.3       3 GLC5        0.0000 
     28 CA         -6.5760   18.9270    0.3670 C.3       6 GLP5        0.0000 
     29 CA         -4.4595   15.9910   -0.8985 C.3       3 GLC5        0.0000 
     30 CA         -3.3140   15.4250    0.9010 C.3       6 GLP5        0.0000 
     31 N          -7.9435   13.1690   -2.0905 N.am      2 SEC2        0.0000 
     32 N          -6.4450   13.9900   -2.2980 N.am      8 SEL2        0.0000 
     33 N          -9.4420   12.3480   -1.8830 N.am      5 SEP2        0.0000 
     34 CA         -1.7475   18.7055   -3.4955 C.3       3 GLC5        0.0000 
     35 CA         -2.8350   16.7960   -3.0880 C.3       9 GLL5        0.0000 
     36 CA         -0.6600   20.6150   -3.9030 C.3       6 GLP5        0.0000 
     37 CA         -0.2495   17.8325    0.0345 C.3       3 GLC5        0.0000 
     38 CA         -0.3860   16.7580   -1.8070 C.3       9 GLL5        0.0000 
     39 CA         -0.1130   18.9070    1.8760 C.3       6 GLP5        0.0000 
     40 CA         -1.3990   17.9900    0.3345 C.3       3 GLC5        0.0000 
     41 CA         -1.3380   17.6930   -1.4640 C.3       9 GLL5        0.0000 
     42 CA         -1.4600   18.2870    2.1330 C.3       6 GLP5        0.0000 
     43 CA         -2.6895   18.5060   -0.2965 C.3       3 GLC5        0.0000 
     44 CA         -2.5590   17.7130   -2.0960 C.3       9 GLL5        0.0000 
     45 CA         -2.8200   19.2990    1.5030 C.3       6 GLP5        0.0000 
     46 CA         -2.6105   19.5900   -2.3975 C.3       3 GLC5        0.0000 
     47 CA         -2.6620   21.4670   -2.6990 C.3       6 GLP5        0.0000 
     48 CA         -2.4787   18.9992   -9.1758 C.3       3 GLC5        0.0000 
     49 CA         -1.9160   18.1850   -7.1780 C.3       9 GLL5        0.0000 
     50 CA         -3.0760   20.2080  -10.6110 C.3       6 GLP5        0.0000 
     51 CA         -3.6681   18.9359   -7.0904 C.3       3 GLC5        0.0000 
     52 CA         -5.0510   20.1020   -7.2460 C.3       6 GLP5        0.0000 
     53 CA         -0.5711   17.6619   -6.2309 C.3       3 GLC5        0.0000 
     54 CA         -2.6890   17.7490   -6.1290 C.3       9 GLL5        0.0000 
     55 CA          1.1430   17.5540   -5.5270 C.3       6 GLP5        0.0000 
     56 CA         -1.4813   19.2910   -5.2782 C.3       3 GLC5        0.0000 
     57 CA         -5.1493   18.3252   -4.3712 C.3       3 GLC5        0.0000 
     58 CA         -4.1720   16.8740   -3.7870 C.3       9 GLL5        0.0000 
     59 CA         -3.0055   16.3398   -0.8455 C.3       3 GLC5        0.0000 
     60 CA         -0.9782   14.0143   -4.1120 C.3       3 GLC5        0.0000 
     61 CA         -1.8730   15.8630   -3.4320 C.3       9 GLL5        0.0000 
     62 CA         -0.6930   12.1800   -5.1110 C.3       6 GLP5        0.0000 
     63 CA          1.3490   15.7320   -1.7528 C.3       3 GLC5        0.0000 
     64 CA         -0.6540   15.8340   -2.7940 C.3       9 GLL5        0.0000 
     65 CA          3.2180   15.1680   -1.2050 C.3       6 GLP5        0.0000 
     66 CA         -2.0880   16.3253   -0.3672 C.3       3 GLC5        0.0000 
     67 CA          0.1591   16.9286   -3.9935 C.3       3 GLC5        0.0000 
     68 CA         -0.7610   18.9202   -2.7692 C.3       3 GLC5        0.0000 
@<TRIPOS>BOND
@<TRIPOS>SUBSTRUCTURE
     1 ALC1       18 GROUP        1 X    ALC  0     ROOT ALC X 1
     2 SEC2       21 GROUP        1 X    SEC  0     **** SEC X 2
     3 GLC5        1 GROUP        1 X    GLC  0     **** GLC X 6
     4 ALP1       20 GROUP        1 Y    ALP  0     ROOT ALP Y 8
     5 SEP2       23 GROUP        1 Y    SEP  0     **** SEP Y 9
     6 GLP5        3 GROUP        1 Y    GLP  0     **** GLP Y 13
     7 ALL1       19 GROUP        1 Z    ALL  0     ROOT ALL Z 15
     8 SEL2       22 GROUP        1 Z    SEL  0     **** SEL Z 16
     9 GLL5        2 GROUP        1 Z    GLL  0     **** GLL Z 20
@<TRIPOS>SET

