#    Name: 3vhv_LD1_1_ligand
#    Modification time : Tue Mar 25 00:53:57 2014

@<TRIPOS>MOLECULE
3vhv_LD1_1_ligand
   39    43     1     0     0
SMALL
NO_CHARGES


@<TRIPOS>ATOM
      1 C1         -1.8470   17.3960   -8.3030 C.ar      1 LD11        0.0000 
      2 C2         -2.5360   16.2090   -8.3920 C.ar      1 LD11        0.0000 
      3 C3         -3.3020   15.7670   -7.3370 C.ar      1 LD11        0.0000 
      4 C4         -3.3750   16.5530   -6.2070 C.ar      1 LD11        0.0000 
      5 C5         -2.6890   17.7490   -6.1290 C.ar      1 LD11        0.0000 
      6 C6         -1.9160   18.1850   -7.1780 C.ar      1 LD11        0.0000 
      7 O7         -1.0810   17.8150   -9.3640 O.3       1 LD11        0.0000 
      8 C8         -0.4220   16.7090   -9.9990 C.3       1 LD11        0.0000 
      9 C9         -1.4080   15.6570  -10.4360 C.2       1 LD11        0.0000 
     10 N10        -2.4350   15.4530   -9.5600 N.am      1 LD11        0.0000 
     11 O11        -1.2800   15.0150  -11.4690 O.2       1 LD11        0.0000 
     12 C12        -4.1680   16.0490   -5.0680 C.2       1 LD11        0.0000 
     13 C13        -4.1720   16.8740   -3.7870 C.3       1 LD11        0.0000 
     14 S14        -5.6050   16.5570   -2.6980 S.3       1 LD11        0.0000 
     15 C15        -5.8340   14.8800   -3.0380 C.2       1 LD11        0.0000 
     16 N16        -5.3860   14.3260   -4.1940 N.pl3     1 LD11        0.0000 
     17 N17        -4.7170   14.8840   -5.2180 N.2       1 LD11        0.0000 
     18 N18        -6.4450   13.9900   -2.2980 N.2       1 LD11        0.0000 
     19 N19        -6.3960   12.8010   -2.9860 N.2       1 LD11        0.0000 
     20 C20        -5.7600   13.0180   -4.1180 C.2       1 LD11        0.0000 
     21 C21        -2.8350   16.7960   -3.0880 C.ar      1 LD11        0.0000 
     22 C22        -1.8730   15.8630   -3.4320 C.ar      1 LD11        0.0000 
     23 C23        -0.6540   15.8340   -2.7940 C.ar      1 LD11        0.0000 
     24 C24        -0.3860   16.7580   -1.8070 C.ar      1 LD11        0.0000 
     25 C25        -1.3380   17.6930   -1.4640 C.ar      1 LD11        0.0000 
     26 C26        -2.5590   17.7130   -2.0960 C.ar      1 LD11        0.0000 
     27 H          -3.8038   14.8793   -7.3894 H         1 LD11        0.0000 
     28 H          -2.7601   18.3227   -5.2671 H         1 LD11        0.0000 
     29 H          -1.4077   19.0679   -7.1250 H         1 LD11        0.0000 
     30 H           0.3068   16.2366   -9.3168 H         1 LD11        0.0000 
     31 H           0.1442   17.0413  -10.8871 H         1 LD11        0.0000 
     32 H          -3.1542   14.7316   -9.7530 H         1 LD11        0.0000 
     33 H          -4.3596   17.9468   -4.0685 H         1 LD11        0.0000 
     34 H          -5.5714   12.3581   -4.8156 H         1 LD11        0.0000 
     35 H          -2.0770   15.1755   -4.1835 H         1 LD11        0.0000 
     36 H           0.0506   15.1304   -3.0503 H         1 LD11        0.0000 
     37 H           0.5267   16.7493   -1.3256 H         1 LD11        0.0000 
     38 H          -1.1306   18.3876   -0.7222 H         1 LD11        0.0000 
     39 H          -3.2693   18.4130   -1.8293 H         1 LD11        0.0000 
@<TRIPOS>BOND
     1    2    1 ar   
     2    6    1 ar   
     3    7    1 1    
     4    3    2 ar   
     5   10    2 1    
     6    4    3 ar   
     7   27    3 1    
     8    5    4 ar   
     9   12    4 1    
    10    6    5 ar   
    11   28    5 1    
    12   29    6 1    
    13    8    7 1    
    14    9    8 1    
    15   30    8 1    
    16   31    8 1    
    17   10    9 am   
    18   11    9 2    
    19   32   10 1    
    20   13   12 1    
    21   17   12 2    
    22   14   13 1    
    23   21   13 1    
    24   33   13 1    
    25   15   14 1    
    26   16   15 1    
    27   18   15 2    
    28   17   16 1    
    29   20   16 1    
    30   19   18 1    
    31   20   19 2    
    32   34   20 1    
    33   22   21 ar   
    34   26   21 ar   
    35   23   22 ar   
    36   35   22 1    
    37   24   23 ar   
    38   36   23 1    
    39   25   24 ar   
    40   37   24 1    
    41   26   25 ar   
    42   38   25 1    
    43   39   26 1    
@<TRIPOS>SUBSTRUCTURE
     1 LD11        1 GROUP   
@<TRIPOS>SET

