#    Name: 3h5u_H5U_1_INTS_M
#    Modification time : Tue Mar 25 13:39:13 2014

@<TRIPOS>MOLECULE
3h5u_H5U_1_INTS_M
   68     0     9     0     0
SMALL
NO_CHARGES


@<TRIPOS>ATOM
      1 CA         77.4900   46.1280   13.0645 C.3       3 GLC5        0.0000 
      2 CA         76.0450   44.6650   12.9280 C.3       9 GLL5        0.0000 
      3 CA         78.9350   47.5910   13.2010 C.3       6 GLP5        0.0000 
      4 CA         77.6185   45.7975    9.6545 C.3       3 GLC5        0.0000 
      5 CA         76.0180   44.8160   10.5980 C.3       9 GLL5        0.0000 
      6 CA         79.2190   46.7790    8.7110 C.3       6 GLP5        0.0000 
      7 N          75.8650   48.0675   12.5550 N.am      2 SEC2        0.0000 
      8 N          75.5680   46.8820   12.0040 N.am      8 SEL2        0.0000 
      9 N          76.1620   49.2530   13.1060 N.am      5 SEP2        0.0000 
     10 CA         76.7060   41.3600    8.5300 C.3       3 GLC5        0.0000 
     11 CA         76.8810   42.3880   10.1350 C.3       9 GLL5        0.0000 
     12 CA         76.5310   40.3320    6.9250 C.3       6 GLP5        0.0000 
     13 CA         73.2360   47.1260    7.6260 C.3       3 GLC5        0.0000 
     14 CA         74.2600   46.2120    9.3910 C.3       9 GLL5        0.0000 
     15 CA         72.2120   48.0400    5.8610 C.3       6 GLP5        0.0000 
     16 CA         74.6160   48.0580    8.7560 C.3       3 GLC5        0.0000 
     17 CA         74.9720   49.9040    8.1210 C.3       6 GLP5        0.0000 
     18 CA         75.8700   44.8065    7.4735 C.3       3 GLC5        0.0000 
     19 CA         74.5000   43.8490    8.7030 C.3       9 GLL5        0.0000 
     20 CA         77.2400   45.7640    6.2440 C.3       6 GLP5        0.0000 
     21 CA         74.9795   42.4705    7.5895 C.3       3 GLC5        0.0000 
     22 CA         75.4590   41.0920    6.4760 C.3       6 GLP5        0.0000 
     23 CA         77.9815   44.3220    7.3425 C.3       3 GLC5        0.0000 
     24 CA         78.7230   42.8800    8.4410 C.3       9 GLL5        0.0000 
     25 CA         83.0665   44.7450    7.7210 C.3       3 GLC5        0.0000 
     26 CA         82.2000   43.9960    8.7640 C.3       9 GLL5        0.0000 
     27 CA         83.9330   45.4940    6.6780 C.3       6 GLP5        0.0000 
     28 CA         77.6155   45.6260   18.6740 C.3       3 GLC5        0.0000 
     29 CA         75.9120   44.7790   19.1590 C.3       9 GLL5        0.0000 
     30 CA         79.3190   46.4730   18.1890 C.3       6 GLP5        0.0000 
     31 CA         74.7260   46.4240   19.4735 C.3       3 GLC5        0.0000 
     32 CA         73.5400   48.0690   19.7880 C.3       6 GLP5        0.0000 
     33 O          76.3395   42.3760   20.9550 O.2       1 ALC1        0.0000 
     34 O          76.0580   43.9600   20.3470 O.2       7 ALL1        0.0000 
     35 O          76.6210   40.7920   21.5630 O.2       4 ALP1        0.0000 
     36 CA         73.7790   46.0720   23.7040 C.3       3 GLC5        0.0000 
     37 CA         74.1110   44.7660   22.1090 C.3       9 GLL5        0.0000 
     38 CA         73.4470   47.3780   25.2990 C.3       6 GLP5        0.0000 
     39 CA         73.8255   46.4175   20.9485 C.3       3 GLC5        0.0000 
     40 N          76.1240   43.8495   24.1095 N.am      2 SEC2        0.0000 
     41 N          76.5000   43.8750   22.6820 N.am      8 SEL2        0.0000 
     42 N          75.7480   43.8240   25.5370 N.am      5 SEP2        0.0000 
     43 N          77.6740   42.8930   22.7245 N.am      2 SEC2        0.0000 
     44 N          78.8480   41.9110   22.7670 N.am      5 SEP2        0.0000 
     45 CA         78.9985   44.8835    9.4947 C.3       3 GLC5        0.0000 
     46 CA         79.2400   43.1660   10.7770 C.3       9 GLL5        0.0000 
     47 CA         75.7588   46.3058    8.3225 C.3       3 GLC5        0.0000 
     48 CA         74.5950   44.8110    9.8950 C.3       9 GLL5        0.0000 
     49 CA         77.0900   47.1000    7.0020 C.3       6 GLP5        0.0000 
     50 CA         79.1500   42.1842   15.3547 C.3       3 GLC5        0.0000 
     51 CA         77.4150   43.1000   15.5790 C.3       9 GLL5        0.0000 
     52 CA         80.6940   41.5540   14.5320 C.3       6 GLP5        0.0000 
     53 CA         79.4595   43.1433   17.5970 C.3       3 GLC5        0.0000 
     54 CA         77.7970   42.5290   16.7760 C.3       9 GLL5        0.0000 
     55 CA         81.3510   43.5020   17.8150 C.3       6 GLP5        0.0000 
     56 CA         78.6190   41.1597   17.9945 C.3       3 GLC5        0.0000 
     57 CA         79.6700   39.5350   18.6100 C.3       6 GLP5        0.0000 
     58 CA         79.7810   41.8912   11.8084 C.3       3 GLC5        0.0000 
     59 CA         80.5440   43.5490   10.4470 C.3       9 GLL5        0.0000 
     60 CA         79.9010   40.5140   13.2540 C.3       6 GLP5        0.0000 
     61 CA         81.5832   44.3398    7.2065 C.3       3 GLC5        0.0000 
     62 CA         80.9410   43.6010    9.1000 C.3       9 GLL5        0.0000 
     63 CA         82.6850   45.2460    5.8120 C.3       6 GLP5        0.0000 
     64 CA         82.8546   43.0463   10.1459 C.3       3 GLC5        0.0000 
     65 CA         84.2380   42.3070   11.0230 C.3       6 GLP5        0.0000 
     66 CA         82.6314   42.4334    8.0837 C.3       3 GLC5        0.0000 
     67 CA         83.9220   41.1520    7.4850 C.3       6 GLP5        0.0000 
     68 CA         80.2551   45.2436    8.7809 C.3       3 GLC5        0.0000 
@<TRIPOS>BOND
@<TRIPOS>SUBSTRUCTURE
     1 ALC1       33 GROUP        1 X    ALC  0     ROOT ALC X 1
     2 SEC2        7 GROUP        1 X    SEC  0     **** SEC X 2
     3 GLC5        1 GROUP        1 X    GLC  0     **** GLC X 6
     4 ALP1       35 GROUP        1 Y    ALP  0     ROOT ALP Y 8
     5 SEP2        9 GROUP        1 Y    SEP  0     **** SEP Y 9
     6 GLP5        3 GROUP        1 Y    GLP  0     **** GLP Y 13
     7 ALL1       34 GROUP        1 Z    ALL  0     ROOT ALL Z 15
     8 SEL2        8 GROUP        1 Z    SEL  0     **** SEL Z 16
     9 GLL5        2 GROUP        1 Z    GLL  0     **** GLL Z 20
@<TRIPOS>SET

