#    Name: 3h5u_H5U_1_ligand
#    Modification time : Tue Mar 25 13:39:13 2014

@<TRIPOS>MOLECULE
3h5u_H5U_1_ligand
   61    64     1     0     0
SMALL
NO_CHARGES


@<TRIPOS>ATOM
      1 C1         76.0450   44.6650   12.9280 C.2       1 H5U571      0.0000 
      2 C2         75.8690   45.5640   11.8970 C.2       1 H5U571      0.0000 
      3 C3         76.0180   44.8160   10.5980 C.3       1 H5U571      0.0000 
      4 N4         76.4230   43.4580   11.0020 N.am      1 H5U571      0.0000 
      5 C5         76.3880   43.3650   12.3500 C.2       1 H5U571      0.0000 
      6 O6         76.7030   42.3510   12.9750 O.2       1 H5U571      0.0000 
      7 O7         75.5680   46.8820   12.0040 O.co2     1 H5U571      0.0000 
      8 C8         76.8810   42.3880   10.1350 C.3       1 H5U571      0.0000 
      9 C9         78.3160   42.8100    9.7800 C.ar      1 H5U571      0.0000 
     10 C10        74.5950   44.8110    9.8950 C.3       1 H5U571      0.0000 
     11 C11        77.4150   43.1000   15.5790 C.ar      1 H5U571      0.0000 
     12 C12        77.7970   42.5290   16.7760 C.ar      1 H5U571      0.0000 
     13 C13        77.3390   43.0400   17.9820 C.ar      1 H5U571      0.0000 
     14 C14        76.4830   44.1280   17.9380 C.ar      1 H5U571      0.0000 
     15 C15        76.5390   44.2100   15.5110 C.ar      1 H5U571      0.0000 
     16 C16        76.1090   44.6910   16.7560 C.ar      1 H5U571      0.0000 
     17 S17        75.0760   46.0740   16.3770 S.o2      1 H5U571      0.0000 
     18 N18        75.1410   45.9670   14.6960 N.2       1 H5U571      0.0000 
     19 C19        75.9420   44.9880   14.3840 C.2       1 H5U571      0.0000 
     20 O20        73.7630   45.7570   16.8270 O.2       1 H5U571      0.0000 
     21 O21        75.6690   47.3240   16.7280 O.2       1 H5U571      0.0000 
     22 C22        74.2600   46.2120    9.3910 C.3       1 H5U571      0.0000 
     23 C23        74.5000   43.8490    8.7030 C.3       1 H5U571      0.0000 
     24 C24        73.4300   44.4170   10.8160 C.3       1 H5U571      0.0000 
     25 C25        79.2400   43.1660   10.7770 C.ar      1 H5U571      0.0000 
     26 C26        80.5440   43.5490   10.4470 C.ar      1 H5U571      0.0000 
     27 C27        80.9410   43.6010    9.1000 C.ar      1 H5U571      0.0000 
     28 C28        80.0220   43.2660    8.1020 C.ar      1 H5U571      0.0000 
     29 C29        78.7230   42.8800    8.4410 C.ar      1 H5U571      0.0000 
     30 F30        82.2000   43.9960    8.7640 F         1 H5U571      0.0000 
     31 C31        75.9120   44.7790   19.1590 C.3       1 H5U571      0.0000 
     32 N32        76.0580   43.9600   20.3470 N.pl3     1 H5U571      0.0000 
     33 S33        75.8970   44.7650   21.7820 S.o2      1 H5U571      0.0000 
     34 C34        74.1110   44.7660   22.1090 C.3       1 H5U571      0.0000 
     35 O35        76.5000   43.8750   22.6820 O.2       1 H5U571      0.0000 
     36 O36        76.2920   46.0880   21.5730 O.2       1 H5U571      0.0000 
     37 H          76.7106   45.2808    9.9874 H         1 H5U571      0.0000 
     38 H          76.3129   42.3344    9.2337 H         1 H5U571      0.0000 
     39 H          76.9215   41.4518   10.6446 H         1 H5U571      0.0000 
     40 H          77.7776   42.7095   14.6816 H         1 H5U571      0.0000 
     41 H          78.4316   41.7111   16.7776 H         1 H5U571      0.0000 
     42 H          77.6221   42.6299   18.8652 H         1 H5U571      0.0000 
     43 H          78.9493   43.1436   11.7666 H         1 H5U571      0.0000 
     44 H          81.2117   43.7921   11.1848 H         1 H5U571      0.0000 
     45 H          80.3034   43.3039    7.1138 H         1 H5U571      0.0000 
     46 H          78.0504   42.6420    7.6941 H         1 H5U571      0.0000 
     47 H          74.8423   45.0016   18.9723 H         1 H5U571      0.0000 
     48 H          76.4101   45.7589   19.3017 H         1 H5U571      0.0000 
     49 H          76.2314   43.0355   20.3997 H         1 H5U571      0.0000 
     50 H          74.2328   46.8782   10.1363 H         1 H5U571      0.0000 
     51 H          74.9344   46.5398    8.7294 H         1 H5U571      0.0000 
     52 H          73.3683   46.2409    8.9394 H         1 H5U571      0.0000 
     53 H          75.1608   44.0772    7.9880 H         1 H5U571      0.0000 
     54 H          74.6767   42.9029    8.9743 H         1 H5U571      0.0000 
     55 H          73.5935   43.8686    8.2813 H         1 H5U571      0.0000 
     56 H          73.5476   43.4974   11.1909 H         1 H5U571      0.0000 
     57 H          73.3430   45.0411   11.5925 H         1 H5U571      0.0000 
     58 H          72.5547   44.4268   10.3325 H         1 H5U571      0.0000 
     59 H          73.7457   43.8377   22.1787 H         1 H5U571      0.0000 
     60 H          73.8905   45.2329   22.9654 H         1 H5U571      0.0000 
     61 H          73.6009   45.2280   21.3835 H         1 H5U571      0.0000 
@<TRIPOS>BOND
     1    2    1 2    
     2    5    1 1    
     3   19    1 1    
     4    3    2 1    
     5    7    2 ar   
     6    4    3 1    
     7   10    3 1    
     8   37    3 1    
     9    5    4 am   
    10    8    4 1    
    11    6    5 2    
    12    9    8 1    
    13   38    8 1    
    14   39    8 1    
    15   25    9 ar   
    16   29    9 ar   
    17   22   10 1    
    18   23   10 1    
    19   24   10 1    
    20   12   11 ar   
    21   15   11 ar   
    22   40   11 1    
    23   13   12 ar   
    24   41   12 1    
    25   14   13 ar   
    26   42   13 1    
    27   16   14 ar   
    28   31   14 1    
    29   16   15 ar   
    30   19   15 1    
    31   17   16 1    
    32   18   17 1    
    33   20   17 2    
    34   21   17 2    
    35   19   18 2    
    36   50   22 1    
    37   51   22 1    
    38   52   22 1    
    39   53   23 1    
    40   54   23 1    
    41   55   23 1    
    42   56   24 1    
    43   57   24 1    
    44   58   24 1    
    45   26   25 ar   
    46   43   25 1    
    47   27   26 ar   
    48   44   26 1    
    49   28   27 ar   
    50   30   27 1    
    51   29   28 ar   
    52   45   28 1    
    53   46   29 1    
    54   32   31 1    
    55   47   31 1    
    56   48   31 1    
    57   33   32 1    
    58   49   32 1    
    59   34   33 1    
    60   35   33 2    
    61   36   33 2    
    62   59   34 1    
    63   60   34 1    
    64   61   34 1    
@<TRIPOS>SUBSTRUCTURE
     1 H5U571      1 GROUP   
@<TRIPOS>SET

