#    Name: 3n58_NAD_4_INTS_M
#    Modification time : Tue Mar 25 00:41:52 2014

@<TRIPOS>MOLECULE
3n58_NAD_4_INTS_M
   93     0     9     0     0
SMALL
NO_CHARGES


@<TRIPOS>ATOM
      1 N         -25.1610    4.1960   13.7110 N.am      2 SEC2        0.0000 
      2 N         -24.8230    5.4550   13.8280 N.am      8 SEL2        0.0000 
      3 N         -25.4990    2.9370   13.5940 N.am      5 SEP2        0.0000 
      4 N         -24.0420    4.7230   15.2005 N.am      2 SEC2        0.0000 
      5 N         -23.2610    3.9910   16.5730 N.am      5 SEP2        0.0000 
      6 CA        -27.9055    9.1285   16.9410 C.3       3 GLC5        0.0000 
      7 CA        -27.4790    7.5520   15.4480 C.3       9 GLL5        0.0000 
      8 CA        -28.3320   10.7050   18.4340 C.3       6 GLP5        0.0000 
      9 N         -29.8050    4.1195   14.4740 N.am      2 SEC2        0.0000 
     10 N         -29.2810    4.5240   15.7320 N.am      8 SEL2        0.0000 
     11 N         -30.3290    3.7150   13.2160 N.am      5 SEP2        0.0000 
     12 O         -29.7130    4.2840   16.9610 O.2       1 ALC1        0.0000 
     13 O         -29.2810    4.5240   15.7320 O.2       7 ALL1        0.0000 
     14 O         -30.1450    4.0440   18.1900 O.2       4 ALP1        0.0000 
     15 CA        -32.9215    6.3645   15.8610 C.3       3 GLC5        0.0000 
     16 CA        -30.7440    6.4140   15.6140 C.3       9 GLL5        0.0000 
     17 CA        -35.0990    6.3150   16.1080 C.3       6 GLP5        0.0000 
     18 N         -31.0260    4.5395   14.4230 N.am      2 SEC2        0.0000 
     19 N         -31.7230    5.3640   15.6300 N.am      8 SEL2        0.0000 
     20 O         -32.0140    4.7330   16.7335 O.2       1 ALC1        0.0000 
     21 O         -31.7230    5.3640   15.6300 O.2       7 ALL1        0.0000 
     22 O         -32.3050    4.1020   17.8370 O.2       4 ALP1        0.0000 
     23 O         -30.9340    4.7040   16.9100 O.2       1 ALC1        0.0000 
     24 CA        -29.9850    6.8190   18.9665 C.3       3 GLC5        0.0000 
     25 CA        -30.6150    7.0760   16.9770 C.3       9 GLL5        0.0000 
     26 CA        -29.3550    6.5620   20.9560 C.3       6 GLP5        0.0000 
     27 CA        -30.2110    9.0395   17.8885 C.3       3 GLC5        0.0000 
     28 CA        -29.8070   11.0030   18.8000 C.3       6 GLP5        0.0000 
     29 N         -33.2980   11.1285   16.0295 N.am      2 SEC2        0.0000 
     30 N         -32.9530    9.8550   16.9470 N.am      8 SEL2        0.0000 
     31 N         -33.6430   12.4020   15.1120 N.am      5 SEP2        0.0000 
     32 CA        -31.4860   10.1755   18.4890 C.3       3 GLC5        0.0000 
     33 CA        -33.1650    9.3480   18.1780 C.3       9 GLL5        0.0000 
     34 CA        -32.0595   10.0915   19.7215 C.3       3 GLC5        0.0000 
     35 CA        -34.0020    9.6880   19.2280 C.3       9 GLL5        0.0000 
     36 CA        -30.1170   10.4950   20.2150 C.3       6 GLP5        0.0000 
     37 CA        -31.2350    7.2270   20.7000 C.3       3 GLC5        0.0000 
     38 CA        -33.1150    7.8920   20.4440 C.3       9 GLL5        0.0000 
     39 CA        -33.3840    7.1360   22.4890 C.3       3 GLC5        0.0000 
     40 CA        -33.6530    6.3800   24.5340 C.3       6 GLP5        0.0000 
     41 CA        -33.4225    6.1200   20.5200 C.3       3 GLC5        0.0000 
     42 CA        -33.7300    4.3480   20.5960 C.3       6 GLP5        0.0000 
     43 CA        -34.7460    7.5845   19.2265 C.3       3 GLC5        0.0000 
     44 CA        -36.3770    7.2770   18.0090 C.3       6 GLP5        0.0000 
     45 CA        -31.6160    9.1935   20.3295 C.3       3 GLC5        0.0000 
     46 CA        -30.8340    7.4085   19.6390 C.3       3 GLC5        0.0000 
     47 CA        -32.3130    8.2550   18.3220 C.3       9 GLL5        0.0000 
     48 CA        -33.7060    7.2850   17.2150 C.3       3 GLC5        0.0000 
     49 CA        -31.2150    9.3750   19.2685 C.3       3 GLC5        0.0000 
     50 N         -22.7615    6.5035   17.2125 N.am      2 SEC2        0.0000 
     51 N         -23.7190    7.1310   16.2770 N.am      8 SEL2        0.0000 
     52 N         -21.8040    5.8760   18.1480 N.am      5 SEP2        0.0000 
     53 CA        -23.7175   12.7325   17.7985 C.3       3 GLC5        0.0000 
     54 CA        -23.8340   11.6340   16.2560 C.3       9 GLL5        0.0000 
     55 CA        -23.6010   13.8310   19.3410 C.3       6 GLP5        0.0000 
     56 CA        -21.2500   10.6845   17.0495 C.3       3 GLC5        0.0000 
     57 CA        -21.7220   12.6110   16.2580 C.3       9 GLL5        0.0000 
     58 CA        -20.7780    8.7580   17.8410 C.3       6 GLP5        0.0000 
     59 CA        -22.6615   13.2210   17.7995 C.3       3 GLC5        0.0000 
     60 CA        -21.6370   13.2655   18.4485 C.3       3 GLC5        0.0000 
     61 CA        -19.6730   12.7000   17.5560 C.3       9 GLL5        0.0000 
     62 N         -15.6470   13.2015   20.4330 N.am      2 SEC2        0.0000 
     63 N         -16.4080   12.6870   19.2120 N.am      8 SEL2        0.0000 
     64 N         -14.8860   13.7160   21.6540 N.am      5 SEP2        0.0000 
     65 O         -19.7190   13.4205   20.1135 O.2       1 ALC1        0.0000 
     66 O         -18.3920   13.5010   19.9040 O.2       7 ALL1        0.0000 
     67 O         -21.0460   13.3400   20.3230 O.2       4 ALP1        0.0000 
     68 O         -17.6045   14.1225   21.0255 O.2       1 ALC1        0.0000 
     69 O         -16.8170   14.7440   22.1470 O.2       4 ALP1        0.0000 
     70 CA        -17.9380    8.9970   16.1540 C.3       3 GLC5        0.0000 
     71 CA        -18.3630   11.0710   15.8160 C.3       9 GLL5        0.0000 
     72 CA        -17.5130    6.9230   16.4920 C.3       6 GLP5        0.0000 
     73 CA        -26.8040    5.5012   16.4318 C.3       3 GLC5        0.0000 
     74 CA        -25.6410    3.8640   17.0190 C.3       6 GLP5        0.0000 
     75 CA        -29.5233    4.9552   14.0145 C.3       3 GLC5        0.0000 
     76 CA        -29.3470    5.8990   15.3380 C.3       9 GLL5        0.0000 
     77 CA        -29.0010    3.7540   12.5530 C.3       6 GLP5        0.0000 
     78 CA        -35.1213    9.8480   17.2360 C.3       3 GLC5        0.0000 
     79 CA        -36.6590   10.1780   15.7690 C.3       6 GLP5        0.0000 
     80 CA        -34.9802    8.3975   18.3560 C.3       3 GLC5        0.0000 
     81 CA        -22.4027    9.8290   17.0225 C.3       3 GLC5        0.0000 
     82 CA        -24.2210   10.1660   16.1520 C.3       9 GLL5        0.0000 
     83 CA        -25.5442   12.7233   15.7825 C.3       3 GLC5        0.0000 
     84 CA        -27.3510   13.4620   15.9770 C.3       6 GLP5        0.0000 
     85 CA        -22.6982   14.4461   15.5843 C.3       3 GLC5        0.0000 
     86 CA        -23.6410   12.3350   14.9200 C.3       9 GLL5        0.0000 
     87 CA        -23.0900   16.3810   15.6080 C.3       6 GLP5        0.0000 
     88 CA        -19.8980   10.6457   17.7610 C.3       3 GLC5        0.0000 
     89 CA        -17.8645   10.6028   18.8565 C.3       3 GLC5        0.0000 
     90 CA        -18.3630   12.3670   17.8060 C.3       9 GLL5        0.0000 
     91 CA        -17.7160    9.2570   20.3470 C.3       6 GLP5        0.0000 
     92 CA        -19.8133   10.0634   16.9168 C.3       3 GLC5        0.0000 
     93 CA        -19.6840   11.4370   15.6140 C.3       9 GLL5        0.0000 
@<TRIPOS>BOND
@<TRIPOS>SUBSTRUCTURE
     1 ALC1       12 GROUP        1 X    ALC  0     ROOT ALC X 1
     2 SEC2        1 GROUP        1 X    SEC  0     **** SEC X 2
     3 GLC5        6 GROUP        1 X    GLC  0     **** GLC X 6
     4 ALP1       14 GROUP        1 Y    ALP  0     ROOT ALP Y 8
     5 SEP2        3 GROUP        1 Y    SEP  0     **** SEP Y 9
     6 GLP5        8 GROUP        1 Y    GLP  0     **** GLP Y 13
     7 ALL1       13 GROUP        1 Z    ALL  0     ROOT ALL Z 15
     8 SEL2        2 GROUP        1 Z    SEL  0     **** SEL Z 16
     9 GLL5        7 GROUP        1 Z    GLL  0     **** GLL Z 20
@<TRIPOS>SET

