#    Name: 3n58_NAD_4_ligand
#    Modification time : Tue Mar 25 00:41:52 2014

@<TRIPOS>MOLECULE
3n58_NAD_4_ligand
   70    74     1     0     0
SMALL
NO_CHARGES


@<TRIPOS>ATOM
      1 PA        -25.5600    6.7650   14.0020 P.3       1 NAD550      0.0000 
      2 O1A       -26.5870    7.2060   12.9980 O.co2     1 NAD550      0.0000 
      3 O2A       -24.8230    5.4550   13.8280 O.co2     1 NAD550      0.0000 
      4 O5B       -26.2610    6.8170   15.4220 O.3       1 NAD550      0.0000 
      5 C5B       -27.4790    7.5520   15.4480 C.3       1 NAD550      0.0000 
      6 C4B       -28.4550    6.7250   16.2410 C.3       1 NAD550      0.0000 
      7 O4B       -29.2890    7.6030   16.9940 O.3       1 NAD550      0.0000 
      8 C3B       -29.3470    5.8990   15.3380 C.3       1 NAD550      0.0000 
      9 O3B       -29.2810    4.5240   15.7320 O.3       1 NAD550      0.0000 
     10 C2B       -30.7440    6.4140   15.6140 C.3       1 NAD550      0.0000 
     11 O2B       -31.7230    5.3640   15.6300 O.3       1 NAD550      0.0000 
     12 C1B       -30.6150    7.0760   16.9770 C.3       1 NAD550      0.0000 
     13 N9A       -31.6110    8.1320   17.2100 N.pl3     1 NAD550      0.0000 
     14 C8A       -32.0030    9.1000   16.3560 C.2       1 NAD550      0.0000 
     15 N7A       -32.9530    9.8550   16.9470 N.2       1 NAD550      0.0000 
     16 C5A       -33.1650    9.3480   18.1780 C.ar      1 NAD550      0.0000 
     17 C6A       -34.0020    9.6880   19.2280 C.ar      1 NAD550      0.0000 
     18 N6A       -34.8530   10.7520   19.1470 N.pl3     1 NAD550      0.0000 
     19 N1A       -33.9500    8.9400   20.3450 N.ar      1 NAD550      0.0000 
     20 C2A       -33.1150    7.8920   20.4440 C.ar      1 NAD550      0.0000 
     21 N3A       -32.3030    7.5470   19.4550 N.ar      1 NAD550      0.0000 
     22 C4A       -32.3130    8.2550   18.3220 C.ar      1 NAD550      0.0000 
     23 O3        -24.4390    7.9110   13.9710 O.3       1 NAD550      0.0000 
     24 PN        -23.2770    7.9130   15.0620 P.3       1 NAD550      0.0000 
     25 O1N       -23.7190    7.1310   16.2770 O.co2     1 NAD550      0.0000 
     26 O2N       -22.0060    7.5380   14.3370 O.co2     1 NAD550      0.0000 
     27 O5D       -23.2180    9.4830   15.3930 O.3       1 NAD550      0.0000 
     28 C5D       -24.2210   10.1660   16.1520 C.3       1 NAD550      0.0000 
     29 C4D       -23.8340   11.6340   16.2560 C.3       1 NAD550      0.0000 
     30 O4D       -22.5950   11.7210   16.9480 O.3       1 NAD550      0.0000 
     31 C3D       -23.6410   12.3350   14.9200 C.3       1 NAD550      0.0000 
     32 O3D       -24.2680   13.6210   14.9720 O.3       1 NAD550      0.0000 
     33 C2D       -22.1410   12.4880   14.8060 C.3       1 NAD550      0.0000 
     34 O2D       -21.7120   13.6140   14.0330 O.3       1 NAD550      0.0000 
     35 C1D       -21.7220   12.6110   16.2580 C.3       1 NAD550      0.0000 
     36 N1N       -20.3210   12.2320   16.4820 N.pl3     1 NAD550      0.0000 
     37 C2N       -19.6730   12.7000   17.5560 C.ar      1 NAD550      0.0000 
     38 C3N       -18.3630   12.3670   17.8060 C.ar      1 NAD550      0.0000 
     39 C7N       -17.6990   12.8930   19.0340 C.2       1 NAD550      0.0000 
     40 O7N       -16.4080   12.6870   19.2120 O.2       1 NAD550      0.0000 
     41 N7N       -18.3920   13.5010   19.9040 N.am      1 NAD550      0.0000 
     42 C4N       -17.6630   11.5300   16.9260 C.ar      1 NAD550      0.0000 
     43 C5N       -18.3630   11.0710   15.8160 C.ar      1 NAD550      0.0000 
     44 C6N       -19.6840   11.4370   15.6140 C.ar      1 NAD550      0.0000 
     45 H         -27.8830    7.7019   14.4520 H         1 NAD550      0.0000 
     46 H         -27.3619    8.5128   15.9389 H         1 NAD550      0.0000 
     47 H         -27.9132    6.0632   16.8902 H         1 NAD550      0.0000 
     48 H         -29.0996    6.0694   14.3411 H         1 NAD550      0.0000 
     49 H         -30.9630    7.1811   14.8999 H         1 NAD550      0.0000 
     50 H         -30.7046    6.2948   17.7232 H         1 NAD550      0.0000 
     51 H         -31.6570    9.2328   15.4589 H         1 NAD550      0.0000 
     52 H         -34.8594   11.2451   18.2770 H         1 NAD550      0.0000 
     53 H         -35.3953   10.9449   19.9647 H         1 NAD550      0.0000 
     54 H         -33.1115    7.3297   21.3426 H         1 NAD550      0.0000 
     55 H         -24.3048    9.7655   17.1639 H         1 NAD550      0.0000 
     56 H         -25.2002   10.1071   15.6733 H         1 NAD550      0.0000 
     57 H         -24.6019   12.1591   16.8104 H         1 NAD550      0.0000 
     58 H         -23.9928   11.7169   14.1542 H         1 NAD550      0.0000 
     59 H         -21.7437   11.5512   14.4456 H         1 NAD550      0.0000 
     60 H         -21.9043   13.6229   16.5692 H         1 NAD550      0.0000 
     61 H         -20.1629   13.3368   18.2320 H         1 NAD550      0.0000 
     62 H         -19.3676   13.5923   19.7042 H         1 NAD550      0.0000 
     63 H         -17.8975   13.8318   20.7078 H         1 NAD550      0.0000 
     64 H         -16.7072   11.2786   17.0933 H         1 NAD550      0.0000 
     65 H         -17.8919   10.4511   15.1364 H         1 NAD550      0.0000 
     66 H         -20.1729   11.0755   14.7636 H         1 NAD550      0.0000 
     67 H         -29.6076    4.5097   16.6771 H         1 NAD550      0.0000 
     68 H         -31.7304    5.0315   16.5731 H         1 NAD550      0.0000 
     69 H         -23.5405   14.2724   14.7565 H         1 NAD550      0.0000 
     70 H         -20.7465   13.7338   14.2642 H         1 NAD550      0.0000 
@<TRIPOS>BOND
     1    2    1 ar   
     2    3    1 ar   
     3    4    1 1    
     4   23    1 1    
     5    5    4 1    
     6    6    5 1    
     7   45    5 1    
     8   46    5 1    
     9    7    6 1    
    10    8    6 1    
    11   47    6 1    
    12   12    7 1    
    13    9    8 1    
    14   10    8 1    
    15   48    8 1    
    16   67    9 1    
    17   11   10 1    
    18   12   10 1    
    19   49   10 1    
    20   68   11 1    
    21   13   12 1    
    22   50   12 1    
    23   14   13 1    
    24   22   13 1    
    25   15   14 2    
    26   51   14 1    
    27   16   15 1    
    28   17   16 ar   
    29   22   16 ar   
    30   18   17 1    
    31   19   17 ar   
    32   52   18 1    
    33   53   18 1    
    34   20   19 ar   
    35   21   20 ar   
    36   54   20 1    
    37   22   21 ar   
    38   24   23 1    
    39   25   24 ar   
    40   26   24 ar   
    41   27   24 1    
    42   28   27 1    
    43   29   28 1    
    44   55   28 1    
    45   56   28 1    
    46   30   29 1    
    47   31   29 1    
    48   57   29 1    
    49   35   30 1    
    50   32   31 1    
    51   33   31 1    
    52   58   31 1    
    53   69   32 1    
    54   34   33 1    
    55   35   33 1    
    56   59   33 1    
    57   70   34 1    
    58   36   35 1    
    59   60   35 1    
    60   37   36 ar   
    61   44   36 ar   
    62   38   37 ar   
    63   61   37 1    
    64   39   38 1    
    65   42   38 ar   
    66   40   39 2    
    67   41   39 am   
    68   62   41 1    
    69   63   41 1    
    70   43   42 ar   
    71   64   42 1    
    72   44   43 ar   
    73   65   43 1    
    74   66   44 1    
@<TRIPOS>SUBSTRUCTURE
     1 NAD550      1 GROUP   
@<TRIPOS>SET

