#    Name: 4ftr_5HK_1_INTS_M
#    Modification time : Mon Mar 24 20:46:09 2014

@<TRIPOS>MOLECULE
4ftr_5HK_1_INTS_M
   63     0     9     0     0
SMALL
NO_CHARGES


@<TRIPOS>ATOM
      1 CA         20.3985   -5.8750    5.6100 C.3       3 GLC5        0.0000 
      2 CA         22.2290   -5.5070    5.2810 C.3       9 GLL5        0.0000 
      3 CA         18.5680   -6.2430    5.9390 C.3       6 GLP5        0.0000 
      4 CA         20.6690   -5.3085   12.2255 C.3       3 GLC5        0.0000 
      5 CA         20.6290   -5.6550   10.0500 C.3       9 GLL5        0.0000 
      6 CA         20.7090   -4.9620   14.4010 C.3       6 GLP5        0.0000 
      7 O          18.9975   -1.6615    8.6200 O.2       1 ALC1        0.0000 
      8 O          18.4740   -2.8900    8.7960 O.2       7 ALL1        0.0000 
      9 O          19.5210   -0.4330    8.4440 O.2       4 ALP1        0.0000 
     10 N          16.6760   -0.5435    8.3245 N.am      2 SEC2        0.0000 
     11 N          16.5180   -1.7970    8.8710 N.am      8 SEL2        0.0000 
     12 N          16.8340    0.7100    7.7780 N.am      5 SEP2        0.0000 
     13 CA         10.1745   -7.7390   12.3570 C.3       3 GLC5        0.0000 
     14 CA         12.0430   -7.2770   13.1680 C.3       9 GLL5        0.0000 
     15 CA          8.3060   -8.2010   11.5460 C.3       6 GLP5        0.0000 
     16 CA         11.5275   -6.4520   15.0685 C.3       3 GLC5        0.0000 
     17 CA         11.0120   -5.6270   16.9690 C.3       6 GLP5        0.0000 
     18 N           9.4365   -7.7445   13.7710 N.am      2 SEC2        0.0000 
     19 N          10.7650   -6.9590   13.5580 N.am      8 SEL2        0.0000 
     20 N           8.1080   -8.5300   13.9840 N.am      5 SEP2        0.0000 
     21 CA          9.2735   -6.9430   12.3675 C.3       3 GLC5        0.0000 
     22 CA         10.2410   -5.6850   13.1890 C.3       9 GLL5        0.0000 
     23 CA          9.5560   -4.7300   11.5800 C.3       3 GLC5        0.0000 
     24 CA          8.8710   -3.7750    9.9710 C.3       6 GLP5        0.0000 
     25 CA         10.1345   -5.0875   14.8960 C.3       3 GLC5        0.0000 
     26 CA         10.0280   -4.4900   16.6030 C.3       6 GLP5        0.0000 
     27 CA         15.5520   -9.6435   11.3265 C.3       3 GLC5        0.0000 
     28 CA         14.6630   -8.0120   12.5330 C.3       9 GLL5        0.0000 
     29 CA         16.4410  -11.2750   10.1200 C.3       6 GLP5        0.0000 
     30 N           9.3575   -9.0290   14.1180 N.am      2 SEC2        0.0000 
     31 N          10.6070   -9.5280   14.2520 N.am      8 SEL2        0.0000 
     32 N           9.4800   -9.6860   15.3920 N.am      2 SEC2        0.0000 
     33 N           8.3530   -9.8440   16.5320 N.am      5 SEP2        0.0000 
     34 CA         22.3155   -3.0962    9.5113 C.3       3 GLC5        0.0000 
     35 CA         21.8360   -4.3730    8.3940 C.3       9 GLL5        0.0000 
     36 CA         22.1580   -1.9640   11.0120 C.3       6 GLP5        0.0000 
     37 CA         19.9252   -5.1007    7.1333 C.3       3 GLC5        0.0000 
     38 CA         19.0588   -5.2620    7.7037 C.3       3 GLC5        0.0000 
     39 CA         19.5350   -4.8020    9.9360 C.3       9 GLL5        0.0000 
     40 CA         16.8807   -6.4763    9.1958 C.3       3 GLC5        0.0000 
     41 CA         17.1280   -4.9000   10.6440 C.3       9 GLL5        0.0000 
     42 CA         17.0160   -7.5730    7.4210 C.3       6 GLP5        0.0000 
     43 CA         16.3762   -3.2070   11.3815 C.3       3 GLC5        0.0000 
     44 CA         15.9410   -1.9810   12.5400 C.3       6 GLP5        0.0000 
     45 CA         16.0033   -4.7868    7.9500 C.3       3 GLC5        0.0000 
     46 CA         16.4950   -3.9660    9.8020 C.3       9 GLL5        0.0000 
     47 CA         16.2010   -5.5610    6.1850 C.3       6 GLP5        0.0000 
     48 CA         13.8372   -4.0578    8.2535 C.3       3 GLC5        0.0000 
     49 CA         14.3730   -5.0100   10.3020 C.3       9 GLL5        0.0000 
     50 CA         12.9300   -3.5810    6.5420 C.3       6 GLP5        0.0000 
     51 CA         15.3428   -3.2577   11.2525 C.3       3 GLC5        0.0000 
     52 CA         15.1160   -4.0590    9.6280 C.3       9 GLL5        0.0000 
     53 CA         15.8057   -3.9360   11.8852 C.3       3 GLC5        0.0000 
     54 CA         14.9780   -5.9230   11.1640 C.3       9 GLL5        0.0000 
     55 CA         13.9856   -6.3664    9.3398 C.3       3 GLC5        0.0000 
     56 CA         13.1100   -7.5040    8.1150 C.3       6 GLP5        0.0000 
     57 CA         12.8333   -7.8523   11.0273 C.3       3 GLC5        0.0000 
     58 CA         14.1750   -6.7770   12.0930 C.3       9 GLL5        0.0000 
     59 CA         12.1500   -9.0960    9.8000 C.3       6 GLP5        0.0000 
     60 CA         12.2300   -8.4962   11.5883 C.3       3 GLC5        0.0000 
     61 CA         13.2088   -8.7710   11.3480 C.3       3 GLC5        0.0000 
     62 CA         13.8720   -8.8800   13.2590 C.3       9 GLL5        0.0000 
     63 CA         21.3382   -3.4254   10.2438 C.3       3 GLC5        0.0000 
@<TRIPOS>BOND
@<TRIPOS>SUBSTRUCTURE
     1 ALC1        7 GROUP        1 X    ALC  0     ROOT ALC X 1
     2 SEC2       10 GROUP        1 X    SEC  0     **** SEC X 2
     3 GLC5        1 GROUP        1 X    GLC  0     **** GLC X 6
     4 ALP1        9 GROUP        1 Y    ALP  0     ROOT ALP Y 8
     5 SEP2       12 GROUP        1 Y    SEP  0     **** SEP Y 9
     6 GLP5        3 GROUP        1 Y    GLP  0     **** GLP Y 13
     7 ALL1        8 GROUP        1 Z    ALL  0     ROOT ALL Z 15
     8 SEL2       11 GROUP        1 Z    SEL  0     **** SEL Z 16
     9 GLL5        2 GROUP        1 Z    GLL  0     **** GLL Z 20
@<TRIPOS>SET

