#    Name: 4ftr_5HK_1_ligand
#    Modification time : Mon Mar 24 20:46:09 2014

@<TRIPOS>MOLECULE
4ftr_5HK_1_ligand
   55    58     1     0     0
SMALL
NO_CHARGES


@<TRIPOS>ATOM
      1 O5         24.8180   -5.7370    7.7670 O.2       1 5HK301      0.0000 
      2 C17        23.8200   -5.3480    7.1750 C.2       1 5HK301      0.0000 
      3 N3         23.3330   -6.0050    6.1050 N.am      1 5HK301      0.0000 
      4 C19        23.8410   -7.3210    5.7090 C.3       1 5HK301      0.0000 
      5 C18        22.2290   -5.5070    5.2810 C.3       1 5HK301      0.0000 
      6 C16        23.1100   -4.0840    7.6270 C.3       1 5HK301      0.0000 
      7 C15        21.8360   -4.3730    8.3940 C.ar      1 5HK301      0.0000 
      8 C14        20.7290   -3.5440    8.2610 C.ar      1 5HK301      0.0000 
      9 C20        21.7630   -5.4380    9.2850 C.ar      1 5HK301      0.0000 
     10 C21        20.6290   -5.6550   10.0500 C.ar      1 5HK301      0.0000 
     11 C22        19.5350   -4.8020    9.9360 C.ar      1 5HK301      0.0000 
     12 C13        19.5640   -3.7600    9.0010 C.ar      1 5HK301      0.0000 
     13 N2         18.4740   -2.8900    8.7960 N.am      1 5HK301      0.0000 
     14 C12        17.1710   -2.8060    9.1370 C.2       1 5HK301      0.0000 
     15 O4         16.5180   -1.7970    8.8710 O.2       1 5HK301      0.0000 
     16 N4         18.5120   -4.9100   10.8970 N.pl3     1 5HK301      0.0000 
     17 C23        17.1280   -4.9000   10.6440 C.ar      1 5HK301      0.0000 
     18 C11        16.4950   -3.9660    9.8020 C.ar      1 5HK301      0.0000 
     19 C10        15.1160   -4.0590    9.6280 C.ar      1 5HK301      0.0000 
     20 C9         14.3730   -5.0100   10.3020 C.ar      1 5HK301      0.0000 
     21 C24        16.3630   -5.8590   11.2970 C.ar      1 5HK301      0.0000 
     22 C8         14.9780   -5.9230   11.1640 C.ar      1 5HK301      0.0000 
     23 C4         14.1750   -6.7770   12.0930 C.ar      1 5HK301      0.0000 
     24 C5         12.8580   -6.4400   12.4160 C.ar      1 5HK301      0.0000 
     25 C6         12.0430   -7.2770   13.1680 C.ar      1 5HK301      0.0000 
     26 O3         10.7650   -6.9590   13.5580 O.3       1 5HK301      0.0000 
     27 C7         10.2410   -5.6850   13.1890 C.3       1 5HK301      0.0000 
     28 C3         14.6630   -8.0120   12.5330 C.ar      1 5HK301      0.0000 
     29 C2         13.8720   -8.8800   13.2590 C.ar      1 5HK301      0.0000 
     30 C1         12.5770   -8.5160   13.5850 C.ar      1 5HK301      0.0000 
     31 N1         11.8160   -9.4680   14.4020 N.pl3     1 5HK301      0.0000 
     32 O1         12.4270  -10.1890   15.1760 O.2       1 5HK301      0.0000 
     33 O2         10.6070   -9.5280   14.2520 O.2       1 5HK301      0.0000 
     34 H          22.8711   -3.4716    6.7462 H         1 5HK301      0.0000 
     35 H          23.7893   -3.4977    8.2615 H         1 5HK301      0.0000 
     36 H          20.7651   -2.7463    7.5986 H         1 5HK301      0.0000 
     37 H          22.5728   -6.0795    9.3766 H         1 5HK301      0.0000 
     38 H          20.5921   -6.4485   10.7057 H         1 5HK301      0.0000 
     39 H          18.8125   -1.9873    8.1406 H         1 5HK301      0.0000 
     40 H          18.8159   -5.0090   11.9158 H         1 5HK301      0.0000 
     41 H          14.6429   -3.4011    8.9805 H         1 5HK301      0.0000 
     42 H          13.3446   -5.0490   10.1670 H         1 5HK301      0.0000 
     43 H          16.8419   -6.5565   11.9090 H         1 5HK301      0.0000 
     44 H          12.4772   -5.5292   12.0799 H         1 5HK301      0.0000 
     45 H          15.6413   -8.2740   12.3048 H         1 5HK301      0.0000 
     46 H          14.2415   -9.7925   13.5567 H         1 5HK301      0.0000 
     47 H          24.8176   -7.2933    5.4955 H         1 5HK301      0.0000 
     48 H          23.7184   -7.9997    6.4331 H         1 5HK301      0.0000 
     49 H          23.3733   -7.6707    4.8972 H         1 5HK301      0.0000 
     50 H          22.4455   -4.6241    4.8643 H         1 5HK301      0.0000 
     51 H          22.0083   -6.1365    4.5360 H         1 5HK301      0.0000 
     52 H          21.3935   -5.3816    5.8160 H         1 5HK301      0.0000 
     53 H          10.7916   -4.9360   13.5577 H         1 5HK301      0.0000 
     54 H          10.2141   -5.5679   12.1962 H         1 5HK301      0.0000 
     55 H           9.3080   -5.5558   13.5248 H         1 5HK301      0.0000 
@<TRIPOS>BOND
     1    2    1 2    
     2    3    2 am   
     3    6    2 1    
     4    4    3 1    
     5    5    3 1    
     6   47    4 1    
     7   48    4 1    
     8   49    4 1    
     9   50    5 1    
    10   51    5 1    
    11   52    5 1    
    12    7    6 1    
    13   34    6 1    
    14   35    6 1    
    15    8    7 ar   
    16    9    7 ar   
    17   12    8 ar   
    18   36    8 1    
    19   10    9 ar   
    20   37    9 1    
    21   11   10 ar   
    22   38   10 1    
    23   12   11 ar   
    24   16   11 1    
    25   13   12 1    
    26   14   13 am   
    27   39   13 1    
    28   15   14 2    
    29   18   14 1    
    30   17   16 1    
    31   40   16 1    
    32   18   17 ar   
    33   21   17 ar   
    34   19   18 ar   
    35   20   19 ar   
    36   41   19 1    
    37   22   20 ar   
    38   42   20 1    
    39   22   21 ar   
    40   43   21 1    
    41   23   22 1    
    42   24   23 ar   
    43   28   23 ar   
    44   25   24 ar   
    45   44   24 1    
    46   26   25 1    
    47   30   25 ar   
    48   27   26 1    
    49   53   27 1    
    50   54   27 1    
    51   55   27 1    
    52   29   28 ar   
    53   45   28 1    
    54   30   29 ar   
    55   46   29 1    
    56   31   30 1    
    57   32   31 2    
    58   33   31 2    
@<TRIPOS>SUBSTRUCTURE
     1 5HK301      1 GROUP   
@<TRIPOS>SET

