#    Name: 4kx6_FAD_2_INTS_M
#    Modification time : Tue Mar 25 09:11:11 2014

@<TRIPOS>MOLECULE
4kx6_FAD_2_INTS_M
  115     0     9     0     0
SMALL
NO_CHARGES


@<TRIPOS>ATOM
      1 N          15.9835  -40.4245  -22.7120 N.am      2 SEC2        0.0000 
      2 N          16.6480  -40.4850  -21.5840 N.am      8 SEL2        0.0000 
      3 N          15.3190  -40.3640  -23.8400 N.am      5 SEP2        0.0000 
      4 CA         16.0925  -40.4245  -17.3995 C.3       3 GLC5        0.0000 
      5 CA         16.9830  -38.6300  -18.2620 C.3       9 GLL5        0.0000 
      6 CA         15.2020  -42.2190  -16.5370 C.3       6 GLP5        0.0000 
      7 CA         18.9150  -37.0870  -20.6270 C.3       3 GLC5        0.0000 
      8 CA         18.6100  -36.8040  -18.8620 C.3       9 GLL5        0.0000 
      9 CA         19.2200  -37.3700  -22.3920 C.3       6 GLP5        0.0000 
     10 O          19.2275  -34.3360  -19.1095 O.2       1 ALC1        0.0000 
     11 O          18.4870  -35.6100  -19.6360 O.2       7 ALL1        0.0000 
     12 O          19.9680  -33.0620  -18.5830 O.2       4 ALP1        0.0000 
     13 O          20.2550  -34.3050  -18.3060 O.2       1 ALC1        0.0000 
     14 O          20.5420  -35.5480  -18.0290 O.2       7 ALL1        0.0000 
     15 CA         17.3400  -35.1295  -16.5850 C.3       3 GLC5        0.0000 
     16 CA         18.7250  -36.2140  -16.5590 C.3       9 GLL5        0.0000 
     17 CA         15.9550  -34.0450  -16.6110 C.3       6 GLP5        0.0000 
     18 CA         17.1835  -37.5415  -15.6555 C.3       3 GLC5        0.0000 
     19 CA         15.6420  -38.8690  -14.7520 C.3       6 GLP5        0.0000 
     20 N          21.5485  -38.3055  -13.5565 N.am      2 SEC2        0.0000 
     21 N          20.2010  -37.8650  -13.6250 N.am      8 SEL2        0.0000 
     22 N          22.8960  -38.7460  -13.4880 N.am      5 SEP2        0.0000 
     23 CA         19.9670  -37.6920  -10.7875 C.3       3 GLC5        0.0000 
     24 CA         20.3480  -35.9030  -11.8720 C.3       9 GLL5        0.0000 
     25 CA         19.5860  -39.4810   -9.7030 C.3       6 GLP5        0.0000 
     26 O          21.2085  -38.1960  -10.9235 O.2       1 ALC1        0.0000 
     27 O          20.8950  -36.5410  -10.8120 O.2       7 ALL1        0.0000 
     28 O          21.5220  -39.8510  -11.0350 O.2       4 ALP1        0.0000 
     29 N          20.4015  -33.3530  -10.9480 N.am      2 SEC2        0.0000 
     30 N          20.0430  -34.5850  -11.8080 N.am      8 SEL2        0.0000 
     31 N          20.7600  -32.1210  -10.0880 N.am      5 SEP2        0.0000 
     32 CA         17.5440  -33.8045  -12.5845 C.3       3 GLC5        0.0000 
     33 CA         19.4950  -33.9210  -12.8500 C.3       9 GLL5        0.0000 
     34 CA         15.5930  -33.6880  -12.3190 C.3       6 GLP5        0.0000 
     35 CA         21.3815  -33.9180  -13.6805 C.3       3 GLC5        0.0000 
     36 CA         23.2680  -33.9150  -14.5110 C.3       6 GLP5        0.0000 
     37 CA         21.2490  -32.8975  -11.9315 C.3       3 GLC5        0.0000 
     38 CA         23.0030  -31.8740  -11.0130 C.3       6 GLP5        0.0000 
     39 CA         18.7185  -32.5995  -11.8055 C.3       3 GLC5        0.0000 
     40 CA         17.9420  -31.2780  -10.7610 C.3       6 GLP5        0.0000 
     41 CA         21.3180  -35.5685  -14.6640 C.3       3 GLC5        0.0000 
     42 CA         19.4700  -35.8210  -14.2290 C.3       9 GLL5        0.0000 
     43 CA         23.1660  -35.3160  -15.0990 C.3       6 GLP5        0.0000 
     44 N           9.9055  -46.7445  -26.2910 N.am      2 SEC2        0.0000 
     45 N          10.3880  -48.0000  -27.0230 N.am      8 SEL2        0.0000 
     46 N           9.4230  -45.4890  -25.5590 N.am      5 SEP2        0.0000 
     47 O          11.3360  -48.1445  -29.4390 O.2       1 ALC1        0.0000 
     48 O          12.0560  -48.5670  -28.4100 O.2       7 ALL1        0.0000 
     49 O          10.6160  -47.7220  -30.4680 O.2       4 ALP1        0.0000 
     50 N          14.5795  -49.1975  -30.9930 N.am      2 SEC2        0.0000 
     51 N          13.7310  -49.1370  -29.7930 N.am      8 SEL2        0.0000 
     52 N          15.4280  -49.2580  -32.1930 N.am      5 SEP2        0.0000 
     53 N          13.1165  -48.7760  -31.0890 N.am      2 SEC2        0.0000 
     54 N          12.5020  -48.4150  -32.3850 N.am      5 SEP2        0.0000 
     55 CA         20.7930  -47.0830  -26.4485 C.3       3 GLC5        0.0000 
     56 CA         20.2450  -49.0600  -26.1240 C.3       9 GLL5        0.0000 
     57 CA         21.3410  -45.1060  -26.7730 C.3       6 GLP5        0.0000 
     58 CA         20.9900  -50.4280  -24.5890 C.3       3 GLC5        0.0000 
     59 CA         21.7350  -51.7960  -23.0540 C.3       6 GLP5        0.0000 
     60 CA         19.6575  -46.7220  -22.5620 C.3       3 GLC5        0.0000 
     61 CA         19.2480  -48.2420  -23.3930 C.3       9 GLL5        0.0000 
     62 CA         20.0670  -45.2020  -21.7310 C.3       6 GLP5        0.0000 
     63 CA         20.4915  -50.0190  -23.2235 C.3       3 GLC5        0.0000 
     64 CA         15.9795  -47.0245  -26.8725 C.3       3 GLC5        0.0000 
     65 CA         16.0120  -48.3040  -25.3170 C.3       9 GLL5        0.0000 
     66 CA         15.9470  -45.7450  -28.4280 C.3       6 GLP5        0.0000 
     67 CA         13.6730  -48.3650  -21.9870 C.3       3 GLC5        0.0000 
     68 CA         14.0620  -47.6560  -23.8280 C.3       9 GLL5        0.0000 
     69 CA         13.2840  -49.0740  -20.1460 C.3       6 GLP5        0.0000 
     70 CA         13.2195  -44.8650  -25.4315 C.3       3 GLC5        0.0000 
     71 CA         13.8160  -46.1400  -23.8930 C.3       9 GLL5        0.0000 
     72 CA         12.6230  -43.5900  -26.9700 C.3       6 GLP5        0.0000 
     73 CA         13.3475  -46.7055  -21.3545 C.3       3 GLC5        0.0000 
     74 CA         14.3320  -45.3620  -22.6800 C.3       9 GLL5        0.0000 
     75 CA         12.3630  -48.0490  -20.0290 C.3       6 GLP5        0.0000 
     76 O          12.4960  -46.3980  -21.9285 O.2       1 ALC1        0.0000 
     77 O          13.9390  -45.9940  -21.4600 O.2       7 ALL1        0.0000 
     78 O          11.0530  -46.8020  -22.3970 O.2       4 ALP1        0.0000 
     79 CA         13.2090  -43.7610  -24.8365 C.3       3 GLC5        0.0000 
     80 CA         13.7950  -43.9320  -22.7030 C.3       9 GLL5        0.0000 
     81 O          14.7590  -41.8295  -23.8810 O.2       1 ALC1        0.0000 
     82 O          14.1990  -43.2950  -23.9220 O.2       7 ALL1        0.0000 
     83 O          15.3190  -40.3640  -23.8400 O.2       4 ALP1        0.0000 
     84 CA         13.6070  -43.9790  -19.7635 C.3       3 GLC5        0.0000 
     85 CA         14.2870  -43.1050  -21.5150 C.3       9 GLL5        0.0000 
     86 CA         12.9270  -44.8530  -18.0120 C.3       6 GLP5        0.0000 
     87 N          12.5660  -38.3540  -21.6420 N.am      2 SEC2        0.0000 
     88 N          13.8530  -39.3010  -20.9660 N.am      8 SEL2        0.0000 
     89 N          11.2790  -37.4070  -22.3180 N.am      5 SEP2        0.0000 
     90 N          11.7725  -42.2985  -18.8010 N.am      2 SEC2        0.0000 
     91 N          12.5990  -41.2060  -19.7000 N.am      8 SEL2        0.0000 
     92 N          10.9460  -43.3910  -17.9020 N.am      5 SEP2        0.0000 
     93 CA         16.3905  -38.3785  -16.4847 C.3       3 GLC5        0.0000 
     94 CA         16.9537  -35.5100  -17.5643 C.3       3 GLC5        0.0000 
     95 CA         17.2950  -37.1460  -18.1730 C.3       9 GLL5        0.0000 
     96 CA         16.6442  -36.6755  -20.2022 C.3       3 GLC5        0.0000 
     97 CA         15.3360  -36.3760  -21.8870 C.3       6 GLP5        0.0000 
     98 CA         20.6520  -37.9950  -18.8580 C.3       3 GLC5        0.0000 
     99 CA         22.1970  -39.2930  -19.4150 C.3       6 GLP5        0.0000 
    100 CA         21.8185  -36.3128  -13.2700 C.3       3 GLC5        0.0000 
    101 CA         20.0620  -36.6160  -13.1440 C.3       9 GLL5        0.0000 
    102 CA         23.4320  -36.3660  -14.0320 C.3       6 GLP5        0.0000 
    103 CA         17.8445  -36.7908  -13.2248 C.3       3 GLC5        0.0000 
    104 CA         15.9230  -37.3630  -12.7630 C.3       6 GLP5        0.0000 
    105 CA         18.1510  -50.4123  -27.2215 C.3       3 GLC5        0.0000 
    106 CA         17.8480  -48.9490  -26.9000 C.3       9 GLL5        0.0000 
    107 CA         19.1300  -51.9930  -27.6570 C.3       6 GLP5        0.0000 
    108 CA         17.6513  -47.5076  -27.6045 C.3       3 GLC5        0.0000 
    109 CA         18.7750  -48.8050  -25.8740 C.3       9 GLL5        0.0000 
    110 CA         17.3290  -46.1970  -28.8790 C.3       6 GLP5        0.0000 
    111 CA         19.3200  -50.4627  -26.8280 C.3       3 GLC5        0.0000 
    112 CA         12.1165  -47.3005  -23.5247 C.3       3 GLC5        0.0000 
    113 CA         10.2940  -47.7030  -23.1890 C.3       6 GLP5        0.0000 
    114 CA         12.8255  -42.3077  -22.8485 C.3       3 GLC5        0.0000 
    115 CA         11.6100  -41.0970  -23.5880 C.3       6 GLP5        0.0000 
@<TRIPOS>BOND
@<TRIPOS>SUBSTRUCTURE
     1 ALC1       10 GROUP        1 X    ALC  0     ROOT ALC X 1
     2 SEC2        1 GROUP        1 X    SEC  0     **** SEC X 2
     3 GLC5        4 GROUP        1 X    GLC  0     **** GLC X 6
     4 ALP1       12 GROUP        1 Y    ALP  0     ROOT ALP Y 8
     5 SEP2        3 GROUP        1 Y    SEP  0     **** SEP Y 9
     6 GLP5        6 GROUP        1 Y    GLP  0     **** GLP Y 13
     7 ALL1       11 GROUP        1 Z    ALL  0     ROOT ALL Z 15
     8 SEL2        2 GROUP        1 Z    SEL  0     **** SEL Z 16
     9 GLL5        5 GROUP        1 Z    GLL  0     **** GLL Z 20
@<TRIPOS>SET

