#    Name: 4kx6_FAD_2_ligand
#    Modification time : Tue Mar 25 09:11:11 2014

@<TRIPOS>MOLECULE
4kx6_FAD_2_ligand
   84    89     1     0     0
SMALL
NO_CHARGES


@<TRIPOS>ATOM
      1 PA         16.5950  -40.4990  -20.0730 P.3       1 FAD601      0.0000 
      2 O1A        17.6570  -41.2440  -19.2970 O.co2     1 FAD601      0.0000 
      3 O2A        16.6480  -40.4850  -21.5840 O.co2     1 FAD601      0.0000 
      4 O5B        16.6010  -38.9670  -19.5900 O.3       1 FAD601      0.0000 
      5 C5B        16.9830  -38.6300  -18.2620 C.3       1 FAD601      0.0000 
      6 C4B        17.2950  -37.1460  -18.1730 C.3       1 FAD601      0.0000 
      7 O4B        17.4370  -36.7910  -16.7970 O.3       1 FAD601      0.0000 
      8 C3B        18.6100  -36.8040  -18.8620 C.3       1 FAD601      0.0000 
      9 O3B        18.4870  -35.6100  -19.6360 O.3       1 FAD601      0.0000 
     10 C2B        19.6040  -36.5900  -17.7400 C.3       1 FAD601      0.0000 
     11 O2B        20.5420  -35.5480  -18.0290 O.3       1 FAD601      0.0000 
     12 C1B        18.7250  -36.2140  -16.5590 C.3       1 FAD601      0.0000 
     13 N9A        19.3020  -36.6460  -15.2570 N.pl3     1 FAD601      0.0000 
     14 C8A        19.7370  -37.8720  -14.9040 C.2       1 FAD601      0.0000 
     15 N7A        20.2010  -37.8650  -13.6250 N.2       1 FAD601      0.0000 
     16 C5A        20.0620  -36.6160  -13.1440 C.ar      1 FAD601      0.0000 
     17 C6A        20.3480  -35.9030  -11.8720 C.ar      1 FAD601      0.0000 
     18 N6A        20.8950  -36.5410  -10.8120 N.pl3     1 FAD601      0.0000 
     19 N1A        20.0430  -34.5850  -11.8080 N.ar      1 FAD601      0.0000 
     20 C2A        19.4950  -33.9210  -12.8500 C.ar      1 FAD601      0.0000 
     21 N3A        19.2130  -34.5070  -14.0260 N.ar      1 FAD601      0.0000 
     22 C4A        19.4700  -35.8210  -14.2290 C.ar      1 FAD601      0.0000 
     23 N1         12.4380  -48.0350  -26.1250 N.2       1 FAD601      0.0000 
     24 C2         11.6110  -48.2020  -27.1890 C.2       1 FAD601      0.0000 
     25 O2         10.3880  -48.0000  -27.0230 O.2       1 FAD601      0.0000 
     26 N3         12.0560  -48.5670  -28.4100 N.am      1 FAD601      0.0000 
     27 C4         13.3520  -48.7980  -28.6520 C.2       1 FAD601      0.0000 
     28 O4         13.7310  -49.1370  -29.7930 O.2       1 FAD601      0.0000 
     29 C4X        14.3180  -48.6450  -27.5360 C.2       1 FAD601      0.0000 
     30 N5         15.6360  -48.8630  -27.7010 N.2       1 FAD601      0.0000 
     31 C5X        16.4960  -48.7140  -26.6720 C.ar      1 FAD601      0.0000 
     32 C6         17.8480  -48.9490  -26.9000 C.ar      1 FAD601      0.0000 
     33 C7         18.7750  -48.8050  -25.8740 C.ar      1 FAD601      0.0000 
     34 C7M        20.2450  -49.0600  -26.1240 C.3       1 FAD601      0.0000 
     35 C8         18.2890  -48.4000  -24.5280 C.ar      1 FAD601      0.0000 
     36 C8M        19.2480  -48.2420  -23.3930 C.3       1 FAD601      0.0000 
     37 C9         16.9430  -48.1640  -24.2910 C.ar      1 FAD601      0.0000 
     38 C9A        16.0120  -48.3040  -25.3170 C.ar      1 FAD601      0.0000 
     39 N10        14.6270  -48.0800  -25.1190 N.pl3     1 FAD601      0.0000 
     40 C10        13.7680  -48.2390  -26.2230 C.2       1 FAD601      0.0000 
     41 C1'        14.0620  -47.6560  -23.8280 C.3       1 FAD601      0.0000 
     42 C2'        13.8160  -46.1400  -23.8930 C.3       1 FAD601      0.0000 
     43 O2'        14.4470  -45.5780  -25.0540 O.3       1 FAD601      0.0000 
     44 C3'        14.3320  -45.3620  -22.6800 C.3       1 FAD601      0.0000 
     45 O3'        13.9390  -45.9940  -21.4600 O.3       1 FAD601      0.0000 
     46 C4'        13.7950  -43.9320  -22.7030 C.3       1 FAD601      0.0000 
     47 O4'        14.1990  -43.2950  -23.9220 O.3       1 FAD601      0.0000 
     48 C5'        14.2870  -43.1050  -21.5150 C.3       1 FAD601      0.0000 
     49 O5'        13.9970  -41.7190  -21.7200 O.3       1 FAD601      0.0000 
     50 P          13.8060  -40.7240  -20.4690 P.3       1 FAD601      0.0000 
     51 O1P        13.8530  -39.3010  -20.9660 O.co2     1 FAD601      0.0000 
     52 O2P        12.5990  -41.2060  -19.7000 O.co2     1 FAD601      0.0000 
     53 O3P        15.1360  -40.9970  -19.5940 O.3       1 FAD601      0.0000 
     54 H          17.8778  -39.1820  -17.9433 H         1 FAD601      0.0000 
     55 H          16.1844  -38.8501  -17.5404 H         1 FAD601      0.0000 
     56 H          16.5084  -36.5895  -18.6347 H         1 FAD601      0.0000 
     57 H          18.9208  -37.6432  -19.4343 H         1 FAD601      0.0000 
     58 H          20.0660  -37.5257  -17.5172 H         1 FAD601      0.0000 
     59 H          18.6383  -35.1198  -16.5661 H         1 FAD601      0.0000 
     60 H          19.7239  -38.6609  -15.4814 H         1 FAD601      0.0000 
     61 H          21.0729  -37.5179  -10.9303 H         1 FAD601      0.0000 
     62 H          21.0729  -35.9792  -10.0041 H         1 FAD601      0.0000 
     63 H          19.2781  -32.8868  -12.7304 H         1 FAD601      0.0000 
     64 H          11.3562  -48.6722  -29.1953 H         1 FAD601      0.0000 
     65 H          18.1658  -49.2332  -27.8406 H         1 FAD601      0.0000 
     66 H          16.6273  -47.8831  -23.3503 H         1 FAD601      0.0000 
     67 H          14.7511  -47.8558  -23.0175 H         1 FAD601      0.0000 
     68 H          13.1167  -48.1476  -23.6370 H         1 FAD601      0.0000 
     69 H          12.7361  -45.9731  -23.9538 H         1 FAD601      0.0000 
     70 H          15.4142  -45.3061  -22.7555 H         1 FAD601      0.0000 
     71 H          12.7090  -43.9807  -22.6502 H         1 FAD601      0.0000 
     72 H          15.3655  -43.2820  -21.4084 H         1 FAD601      0.0000 
     73 H          13.7966  -43.4925  -20.6121 H         1 FAD601      0.0000 
     74 H          20.6125  -48.4536  -26.8291 H         1 FAD601      0.0000 
     75 H          20.7923  -48.9163  -25.2995 H         1 FAD601      0.0000 
     76 H          20.4129  -49.9979  -26.4275 H         1 FAD601      0.0000 
     77 H          19.7305  -49.0948  -23.1930 H         1 FAD601      0.0000 
     78 H          19.9435  -47.5505  -23.5880 H         1 FAD601      0.0000 
     79 H          18.7850  -47.9630  -22.5517 H         1 FAD601      0.0000 
     80 H          19.0081  -34.9207  -19.1328 H         1 FAD601      0.0000 
     81 H          19.9846  -34.7295  -18.1683 H         1 FAD601      0.0000 
     82 H          14.4886  -44.5949  -24.8755 H         1 FAD601      0.0000 
     83 H          13.1170  -46.5144  -21.6914 H         1 FAD601      0.0000 
     84 H          14.5458  -42.3994  -23.6433 H         1 FAD601      0.0000 
@<TRIPOS>BOND
     1    2    1 ar   
     2    3    1 ar   
     3    4    1 1    
     4   53    1 1    
     5    5    4 1    
     6    6    5 1    
     7   54    5 1    
     8   55    5 1    
     9    7    6 1    
    10    8    6 1    
    11   56    6 1    
    12   12    7 1    
    13    9    8 1    
    14   10    8 1    
    15   57    8 1    
    16   80    9 1    
    17   11   10 1    
    18   12   10 1    
    19   58   10 1    
    20   81   11 1    
    21   13   12 1    
    22   59   12 1    
    23   14   13 1    
    24   22   13 1    
    25   15   14 2    
    26   60   14 1    
    27   16   15 1    
    28   17   16 ar   
    29   22   16 ar   
    30   18   17 1    
    31   19   17 ar   
    32   61   18 1    
    33   62   18 1    
    34   20   19 ar   
    35   21   20 ar   
    36   63   20 1    
    37   22   21 ar   
    38   24   23 1    
    39   40   23 2    
    40   25   24 2    
    41   26   24 am   
    42   27   26 am   
    43   64   26 1    
    44   28   27 2    
    45   29   27 1    
    46   30   29 2    
    47   40   29 1    
    48   31   30 1    
    49   32   31 ar   
    50   38   31 ar   
    51   33   32 ar   
    52   65   32 1    
    53   34   33 1    
    54   35   33 ar   
    55   74   34 1    
    56   75   34 1    
    57   76   34 1    
    58   36   35 1    
    59   37   35 ar   
    60   77   36 1    
    61   78   36 1    
    62   79   36 1    
    63   38   37 ar   
    64   66   37 1    
    65   39   38 1    
    66   40   39 1    
    67   41   39 1    
    68   42   41 1    
    69   67   41 1    
    70   68   41 1    
    71   43   42 1    
    72   44   42 1    
    73   69   42 1    
    74   82   43 1    
    75   45   44 1    
    76   46   44 1    
    77   70   44 1    
    78   83   45 1    
    79   47   46 1    
    80   48   46 1    
    81   71   46 1    
    82   84   47 1    
    83   49   48 1    
    84   72   48 1    
    85   73   48 1    
    86   50   49 1    
    87   51   50 ar   
    88   52   50 ar   
    89   53   50 1    
@<TRIPOS>SUBSTRUCTURE
     1 FAD601      1 GROUP   
@<TRIPOS>SET

