#    Name: 3zia_ADP_4_INTS_M
#    Modification time : Tue Mar 25 03:23:18 2014

@<TRIPOS>MOLECULE
3zia_ADP_4_INTS_M
   67     0    12     0     0
SMALL
NO_CHARGES


@<TRIPOS>ATOM
      1 Zn        117.4245   20.6900  175.9625 Zn        3 ZIC7        0.0000 
      2 Zn        117.0970   21.3090  176.7940 Zn       11 ZIL7        0.0000 
      3 Zn        117.7520   20.0710  175.1310 Zn        7 ZIP7        0.0000 
      4 N         117.5750   20.4715  177.9365 N.am      1 SEC2        0.0000 
      5 N         117.0970   21.3090  176.7940 N.am      9 SEL2        0.0000 
      6 N         118.0530   19.6340  179.0790 N.am      5 SEP2        0.0000 
      7 NZ        114.0230   21.9065  177.1105 N.4       2 LYC4        0.0000 
      8 NZ        114.9620   22.4610  177.7010 N.4      10 LYL4        0.0000 
      9 NZ        113.0840   21.3520  176.5200 N.4       6 LYP4        0.0000 
     10 N         114.6520   24.0810  178.1410 N.am      1 SEC2        0.0000 
     11 N         114.9620   22.4610  177.7010 N.am      9 SEL2        0.0000 
     12 N         114.3420   25.7010  178.5810 N.am      5 SEP2        0.0000 
     13 N         115.3285   23.2765  179.0190 N.am      1 SEC2        0.0000 
     14 N         115.6950   24.0920  180.3370 N.am      5 SEP2        0.0000 
     15 N         115.4725   21.8665  178.9255 N.am      1 SEC2        0.0000 
     16 N         115.9830   21.2720  180.1500 N.am      5 SEP2        0.0000 
     17 N         114.0230   21.9065  177.1105 N.am      1 SEC2        0.0000 
     18 N         113.0840   21.3520  176.5200 N.am      5 SEP2        0.0000 
     19 NZ        116.9970   23.9385  174.9370 N.4       2 LYC4        0.0000 
     20 NZ        116.0500   23.2450  175.5370 N.4      10 LYL4        0.0000 
     21 NZ        117.7660   25.7820  173.7040 N.4       6 LYP4        0.0000 
     22 NZ        114.5670   22.2985  176.0285 N.4       2 LYC4        0.0000 
     23 N         116.9970   23.9385  174.9370 N.am      1 SEC2        0.0000 
     24 N         116.0500   23.2450  175.5370 N.am      9 SEL2        0.0000 
     25 N         117.9440   24.6320  174.3370 N.am      5 SEP2        0.0000 
     26 N         115.1735   24.3680  175.6350 N.am      1 SEC2        0.0000 
     27 N         114.2970   25.4910  175.7330 N.am      5 SEP2        0.0000 
     28 N         118.7310   24.0605  175.5055 N.am      1 SEC2        0.0000 
     29 N         119.5180   23.4890  176.6740 N.am      9 SEL2        0.0000 
     30 N         118.5160   21.0525  179.0145 N.am      1 SEC2        0.0000 
     31 N         118.9790   22.4710  178.9500 N.am      9 SEL2        0.0000 
     32 N         119.7005   21.4780  179.6480 N.am      1 SEC2        0.0000 
     33 N         120.4220   20.4850  180.3460 N.am      5 SEP2        0.0000 
     34 CA        119.6280   26.2225  175.9225 C.3       4 GLC5        0.0000 
     35 CA        119.1130   26.0870  177.8220 C.3      12 GLL5        0.0000 
     36 CA        120.1430   26.3580  174.0230 C.3       8 GLP5        0.0000 
     37 CA        117.2055   26.1970  177.1205 C.3       4 GLC5        0.0000 
     38 CA        115.2980   26.3070  176.4190 C.3       8 GLP5        0.0000 
     39 CA        120.2950   27.4685  176.3975 C.3       4 GLC5        0.0000 
     40 CA        119.6900   27.3050  178.4940 C.3      12 GLL5        0.0000 
     41 CA        120.9000   27.6320  174.3010 C.3       8 GLP5        0.0000 
     42 CA        121.5945   25.0355  179.8875 C.3       4 GLC5        0.0000 
     43 CA        121.0950   27.0240  179.0000 C.3      12 GLL5        0.0000 
     44 CA        122.0940   23.0470  180.7750 C.3       8 GLP5        0.0000 
     45 CA        122.9750   26.7305  179.0915 C.3       4 GLC5        0.0000 
     46 CA        124.8550   26.4370  179.1830 C.3       8 GLP5        0.0000 
     47 CA        123.1490   28.3840  180.0920 C.3       4 GLC5        0.0000 
     48 CA        121.2080   28.1250  180.0490 C.3      12 GLL5        0.0000 
     49 CA        125.0900   28.6430  180.1350 C.3       8 GLP5        0.0000 
     50 CA        118.5965   28.1245  182.2305 C.3       4 GLC5        0.0000 
     51 CA        119.8500   27.9960  180.7290 C.3      12 GLL5        0.0000 
     52 CA        117.3430   28.2530  183.7320 C.3       8 GLP5        0.0000 
     53 CA        120.2285   27.7670  185.9525 C.3       4 GLC5        0.0000 
     54 CA        121.8000   28.0700  184.6750 C.3      12 GLL5        0.0000 
     55 CA        118.6570   27.4640  187.2300 C.3       8 GLP5        0.0000 
     56 CA        123.1160   26.5520  184.9740 C.3       4 GLC5        0.0000 
     57 CA        124.4320   25.0340  185.2730 C.3       8 GLP5        0.0000 
     58 CA        123.3885   28.5520  183.6475 C.3       4 GLC5        0.0000 
     59 CA        124.9770   29.0340  182.6200 C.3       8 GLP5        0.0000 
     60 CA        123.2660   28.4405  186.1465 C.3       4 GLC5        0.0000 
     61 CA        124.7320   28.8110  187.6180 C.3       8 GLP5        0.0000 
     62 CA        121.2073   24.2420  183.7745 C.3       4 GLC5        0.0000 
     63 CA        120.9270   25.9290  184.9790 C.3      12 GLL5        0.0000 
     64 CA        121.7770   22.5240  183.2020 C.3       8 GLP5        0.0000 
     65 CA        119.6472   26.7120  185.7885 C.3       4 GLC5        0.0000 
     66 CA        120.3480   25.9910  183.7150 C.3      12 GLL5        0.0000 
     67 CA        122.5348   25.4970  184.8100 C.3       4 GLC5        0.0000 
@<TRIPOS>BOND
@<TRIPOS>SUBSTRUCTURE
     1 SEC2        4 GROUP        1 X    SEC  0     ROOT SEC X 2
     2 LYC4        7 GROUP        1 X    LYC  0     **** LYC X 4
     3 ZIC7        1 GROUP        1 X    ZIC  0     **** ZIC X 5
     4 GLC5       34 GROUP        1 X    GLC  0     **** GLC X 6
     5 SEP2        6 GROUP        1 Y    SEP  0     ROOT SEP Y 9
     6 LYP4        9 GROUP        1 Y    LYP  0     **** LYP Y 11
     7 ZIP7        3 GROUP        1 Y    ZIP  0     **** ZIP Y 12
     8 GLP5       36 GROUP        1 Y    GLP  0     **** GLP Y 13
     9 SEL2        5 GROUP        1 Z    SEL  0     ROOT SEL Z 16
    10 LYL4        8 GROUP        1 Z    LYL  0     **** LYL Z 18
    11 ZIL7        2 GROUP        1 Z    ZIL  0     **** ZIL Z 19
    12 GLL5       35 GROUP        1 Z    GLL  0     **** GLL Z 20
@<TRIPOS>SET

