#    Name: 3zia_ADP_4_ligand
#    Modification time : Tue Mar 25 03:23:18 2014

@<TRIPOS>MOLECULE
3zia_ADP_4_ligand
   39    41     1     0     0
SMALL
NO_CHARGES


@<TRIPOS>ATOM
      1 PB        116.3410   22.7260  176.8900 P.3       1 ADP600      0.0000 
      2 O1B       117.0970   21.3090  176.7940 O.co2     1 ADP600      0.0000 
      3 O2B       114.9620   22.4610  177.7010 O.co2     1 ADP600      0.0000 
      4 O3B       116.0500   23.2450  175.5370 O.co2     1 ADP600      0.0000 
      5 PA        118.7990   23.5490  177.9660 P.3       1 ADP600      0.0000 
      6 O1A       119.5180   23.4890  176.6740 O.co2     1 ADP600      0.0000 
      7 O2A       118.9790   22.4710  178.9500 O.co2     1 ADP600      0.0000 
      8 O3A       117.2120   23.7380  177.7630 O.3       1 ADP600      0.0000 
      9 O5'       119.1870   24.9400  178.6450 O.3       1 ADP600      0.0000 
     10 C5'       119.1130   26.0870  177.8220 C.3       1 ADP600      0.0000 
     11 C4'       119.6900   27.3050  178.4940 C.3       1 ADP600      0.0000 
     12 O4'       118.9210   27.5730  179.6860 O.3       1 ADP600      0.0000 
     13 C3'       121.0950   27.0240  179.0000 C.3       1 ADP600      0.0000 
     14 O3'       122.0270   27.1950  177.9450 O.3       1 ADP600      0.0000 
     15 C2'       121.2080   28.1250  180.0490 C.3       1 ADP600      0.0000 
     16 O2'       121.2550   29.4120  179.4370 O.3       1 ADP600      0.0000 
     17 C1'       119.8500   27.9960  180.7290 C.3       1 ADP600      0.0000 
     18 N9        119.9030   26.9840  181.8200 N.pl3     1 ADP600      0.0000 
     19 C8        119.3290   25.7740  181.8330 C.2       1 ADP600      0.0000 
     20 N7        119.5950   25.1620  182.9910 N.2       1 ADP600      0.0000 
     21 C5        120.3480   25.9910  183.7150 C.ar      1 ADP600      0.0000 
     22 C6        120.9270   25.9290  184.9790 C.ar      1 ADP600      0.0000 
     23 N6        120.7930   24.8590  185.7490 N.pl3     1 ADP600      0.0000 
     24 N1        121.6350   26.9760  185.4210 N.ar      1 ADP600      0.0000 
     25 C2        121.8000   28.0700  184.6750 C.ar      1 ADP600      0.0000 
     26 N3        121.2640   28.1700  183.4650 N.ar      1 ADP600      0.0000 
     27 C4        120.5390   27.1510  182.9690 C.ar      1 ADP600      0.0000 
     28 H         118.0644   26.3192  177.5419 H         1 ADP600      0.0000 
     29 H         119.6574   25.9373  176.8664 H         1 ADP600      0.0000 
     30 H         119.7028   28.1272  177.8476 H         1 ADP600      0.0000 
     31 H         121.1005   26.1002  179.4733 H         1 ADP600      0.0000 
     32 H         121.9487   27.9094  180.7183 H         1 ADP600      0.0000 
     33 H         119.5721   28.9510  181.1105 H         1 ADP600      0.0000 
     34 H         118.7961   25.3968  181.1046 H         1 ADP600      0.0000 
     35 H         120.2944   24.0894  185.3500 H         1 ADP600      0.0000 
     36 H         121.2026   24.9179  186.6594 H         1 ADP600      0.0000 
     37 H         122.3710   28.8734  185.0592 H         1 ADP600      0.0000 
     38 H         122.9105   26.9372  178.3360 H         1 ADP600      0.0000 
     39 H         121.4500   29.2330  178.4727 H         1 ADP600      0.0000 
@<TRIPOS>BOND
     1    2    1 ar   
     2    3    1 ar   
     3    4    1 ar   
     4    8    1 1    
     5    6    5 ar   
     6    7    5 ar   
     7    8    5 1    
     8    9    5 1    
     9   10    9 1    
    10   11   10 1    
    11   28   10 1    
    12   29   10 1    
    13   12   11 1    
    14   13   11 1    
    15   30   11 1    
    16   17   12 1    
    17   14   13 1    
    18   15   13 1    
    19   31   13 1    
    20   38   14 1    
    21   16   15 1    
    22   17   15 1    
    23   32   15 1    
    24   39   16 1    
    25   18   17 1    
    26   33   17 1    
    27   19   18 1    
    28   27   18 1    
    29   20   19 2    
    30   34   19 1    
    31   21   20 1    
    32   22   21 ar   
    33   27   21 ar   
    34   23   22 1    
    35   24   22 ar   
    36   35   23 1    
    37   36   23 1    
    38   25   24 ar   
    39   26   25 ar   
    40   37   25 1    
    41   27   26 ar   
@<TRIPOS>SUBSTRUCTURE
     1 ADP600      1 GROUP   
@<TRIPOS>SET

