#    Name: 1ENO_1_CAVITY_N1_ALL.mol2
#    Modification time : Mon Mar 10 21:13:42 2014

@<TRIPOS>MOLECULE
1ENO_1_CAVITY_N1_ALL.mol2
   88     0     6     0     0
SMALL
NO_CHARGES


@<TRIPOS>ATOM
      1 CA         -1.5134   20.1118   42.8005 C.3       5 GLY6        0.0000 
      2 CA         -4.2093   17.5985   45.3823 C.3       5 GLY6        0.0000 
      3 CA         -3.0462   17.2498   43.6428 C.3       5 GLY6        0.0000 
      4 CZ         -3.9449   16.4121   44.5034 C.ar      4 PHE5        0.0000 
      5 CZ         -2.7818   16.0634   42.7640 C.ar      4 PHE5        0.0000 
      6 CA         -1.0899   13.3418   39.2668 C.3       5 GLY6        0.0000 
      7 CA         -1.7693   21.2721   46.2773 C.3       5 GLY6        0.0000 
      8 CA         -1.5049   20.0857   45.3985 C.3       5 GLY6        0.0000 
      9 CA         -2.4035   19.2479   46.2590 C.3       5 GLY6        0.0000 
     10 CA         -3.3022   18.4101   47.1196 C.3       5 GLY6        0.0000 
     11 CA         -4.2008   17.5724   47.9802 C.3       5 GLY6        0.0000 
     12 CA         -0.3418   19.7370   43.6590 C.3       5 GLY6        0.0000 
     13 CA         -1.2405   18.8992   44.5196 C.3       5 GLY6        0.0000 
     14 CA         -2.1391   18.0614   45.3802 C.3       5 GLY6        0.0000 
     15 CA         -3.0377   17.2237   46.2408 C.3       5 GLY6        0.0000 
     16 CZ         -3.9364   16.3859   47.1013 C.ar      4 PHE5        0.0000 
     17 DU         -0.0774   18.5505   42.7801 H         6 CUB7        0.0000 
     18 DU         -0.9760   17.7128   43.6407 H         6 CUB7        0.0000 
     19 DU         -1.8747   16.8750   44.5013 H         6 CUB7        0.0000 
     20 CZ         -2.7733   16.0372   45.3619 C.ar      4 PHE5        0.0000 
     21 CZ         -3.6720   15.1995   46.2225 C.ar      4 PHE5        0.0000 
     22 CZ         -1.6103   15.6885   43.6224 C.ar      4 PHE5        0.0000 
     23 CZ         -2.5089   14.8508   44.4830 C.ar      4 PHE5        0.0000 
     24 DU          1.3501   17.0154   40.1618 H         6 CUB7        0.0000 
     25 DU          0.4515   16.1776   41.0224 H         6 CUB7        0.0000 
     26 DU         -0.4472   15.3399   41.8830 H         6 CUB7        0.0000 
     27 OG         -1.3458   14.5021   42.7436 O.2       1 SER1        0.0000 
     28 CA          1.6145   15.8289   39.2829 C.3       5 GLY6        0.0000 
     29 CA          0.7159   14.9912   40.1435 C.3       5 GLY6        0.0000 
     30 CA         -0.1828   14.1534   41.0041 C.3       5 GLY6        0.0000 
     31 OG         -1.0814   13.3156   41.8647 O.2       1 SER1        0.0000 
     32 CA          0.5653   20.5486   45.3964 C.3       5 GLY6        0.0000 
     33 OG         -0.3333   19.7108   46.2569 O.2       1 SER1        0.0000 
     34 OG         -1.2320   18.8731   47.1175 O.2       1 SER1        0.0000 
     35 CA         -2.1306   18.0353   47.9781 C.3       5 GLY6        0.0000 
     36 CA         -3.0293   17.1976   48.8387 C.3       5 GLY6        0.0000 
     37 CZ          1.7284   20.1999   43.6569 C.ar      4 PHE5        0.0000 
     38 CZ          0.8297   19.3621   44.5175 C.ar      4 PHE5        0.0000 
     39 OG         -0.0689   18.5244   45.3781 O.2       1 SER1        0.0000 
     40 OG         -0.9676   17.6866   46.2387 O.2       1 SER1        0.0000 
     41 OG         -1.8662   16.8489   47.0992 O.2       1 SER1        0.0000 
     42 CZ         -2.7648   16.0111   47.9598 C.ar      4 PHE5        0.0000 
     43 CA          2.8914   19.8512   41.9175 C.3       5 GLY6        0.0000 
     44 CZ          1.9928   19.0135   42.7780 C.ar      4 PHE5        0.0000 
     45 CZ          1.0942   18.1757   43.6386 C.ar      4 PHE5        0.0000 
     46 CZ          0.1955   17.3379   44.4992 C.ar      4 PHE5        0.0000 
     47 OG         -0.7031   16.5002   45.3598 O.2       1 SER1        0.0000 
     48 CZ         -1.6018   15.6624   46.2204 C.ar      4 PHE5        0.0000 
     49 CZ         -2.5004   14.8247   47.0809 C.ar      4 PHE5        0.0000 
     50 DU          3.1559   18.6648   41.0386 H         6 CUB7        0.0000 
     51 DU          2.2572   17.8270   41.8992 H         6 CUB7        0.0000 
     52 CZ          1.3586   16.9892   42.7597 C.ar      4 PHE5        0.0000 
     53 CZ          0.4599   16.1515   43.6203 C.ar      4 PHE5        0.0000 
     54 OG         -0.4387   15.3137   44.4809 O.2       1 SER1        0.0000 
     55 OG         -1.3373   14.4760   45.3415 O.2       1 SER1        0.0000 
     56 N           3.4203   17.4783   40.1597 N.2       2 ALA2        0.0000 
     57 DU          2.5216   16.6406   41.0203 H         6 CUB7        0.0000 
     58 CA          1.6230   15.8028   41.8809 C.3       5 GLY6        0.0000 
     59 DU          0.7244   14.9650   42.7415 H         6 CUB7        0.0000 
     60 OG         -0.1743   14.1273   43.6020 O.2       1 SER1        0.0000 
     61 O           3.6847   16.2919   39.2808 O.2       2 ALA2        0.0000 
     62 CA          2.7861   15.4541   40.1414 C.3       5 GLY6        0.0000 
     63 CA          0.9888   13.7786   41.8626 C.3       5 GLY6        0.0000 
     64 OG          0.0901   12.9408   42.7232 O.2       1 SER1        0.0000 
     65 OG         -0.6946   16.4740   47.9577 O.2       1 SER1        0.0000 
     66 OG          0.4684   16.1254   46.2183 O.2       1 SER1        0.0000 
     67 CZ         -0.4302   15.2876   47.0788 C.ar      4 PHE5        0.0000 
     68 CZ          4.3274   18.2899   41.8971 C.ar      4 PHE5        0.0000 
     69 CZ          3.4288   17.4522   42.7576 C.ar      4 PHE5        0.0000 
     70 CZ          2.5301   16.6144   43.6182 C.ar      4 PHE5        0.0000 
     71 CZ          1.6315   15.7767   44.4788 C.ar      4 PHE5        0.0000 
     72 CZ          0.7328   14.9389   45.3394 C.ar      4 PHE5        0.0000 
     73 CA         -0.1658   14.1011   46.2000 C.3       5 GLY6        0.0000 
     74 N           4.5918   17.1035   41.0182 N.2       2 ALA2        0.0000 
     75 N           3.6932   16.2657   41.8788 N.2       2 ALA2        0.0000 
     76 DU          2.7945   15.4280   42.7394 H         6 CUB7        0.0000 
     77 OD1         1.8959   14.5902   43.5999 O.3       3 ASP3        0.0000 
     78 CA          0.9973   13.7525   44.4605 C.3       5 GLY6        0.0000 
     79 CA          0.0986   12.9147   45.3211 C.3       5 GLY6        0.0000 
     80 N           3.9576   15.0793   40.9999 N.2       2 ALA2        0.0000 
     81 CA          3.0590   14.2415   41.8605 C.3       5 GLY6        0.0000 
     82 N           1.9044   14.5641   46.1979 N.2       2 ALA2        0.0000 
     83 OG          4.8647   15.8909   42.7373 O.2       1 SER1        0.0000 
     84 CA          3.9661   15.0532   43.5978 C.3       5 GLY6        0.0000 
     85 OD1         3.0675   14.2154   44.4584 O.3       3 ASP3        0.0000 
     86 OD1         2.1688   13.3776   45.3190 O.3       3 ASP3        0.0000 
     87 N           5.1292   14.7045   41.8584 N.2       2 ALA2        0.0000 
     88 OD1         4.2305   13.8667   42.7190 O.3       3 ASP3        0.0000 
@<TRIPOS>BOND
@<TRIPOS>SUBSTRUCTURE
     1 SER1       27 GROUP   
     2 ALA2       56 GROUP   
     3 ASP3       77 GROUP   
     4 PHE5        4 GROUP   
     5 GLY6        1 GROUP   
     6 CUB7       17 GROUP   
@<TRIPOS>SET

