#    Name: 1eno_NAD_1_INTS_M
#    Modification time : Tue Mar 25 00:05:31 2014

@<TRIPOS>MOLECULE
1eno_NAD_1_INTS_M
   66     0     9     0     0
SMALL
NO_CHARGES


@<TRIPOS>ATOM
      1 CA          7.3375   17.3295   37.2445 C.3       3 GLC5        0.0000 
      2 CA          5.1330   17.5140   37.3090 C.3       9 GLL5        0.0000 
      3 CA          9.5420   17.1450   37.1800 C.3       6 GLP5        0.0000 
      4 CA          5.9845   20.5485   35.4020 C.3       3 GLC5        0.0000 
      5 CA          5.2600   18.7560   36.4240 C.3       9 GLL5        0.0000 
      6 CA          6.7090   22.3410   34.3800 C.3       6 GLP5        0.0000 
      7 O           7.6245   19.1380   37.5225 O.2       1 ALC1        0.0000 
      8 O           6.5560   19.3670   36.5980 O.2       7 ALL1        0.0000 
      9 O           8.6930   18.9090   38.4470 O.2       4 ALP1        0.0000 
     10 CA          4.5495   18.0655   32.8630 C.3       3 GLC5        0.0000 
     11 CA          4.9990   18.1570   35.0430 C.3       9 GLL5        0.0000 
     12 CA          4.1000   17.9740   30.6830 C.3       6 GLP5        0.0000 
     13 CA          7.6050   16.9765   36.1705 C.3       3 GLC5        0.0000 
     14 CA          5.6680   16.8080   35.1610 C.3       9 GLL5        0.0000 
     15 CA          6.4605   17.3355   33.1375 C.3       3 GLC5        0.0000 
     16 CA          7.2530   17.8630   31.1140 C.3       6 GLP5        0.0000 
     17 CA          6.3940   15.3365   36.0760 C.3       3 GLC5        0.0000 
     18 CA          7.1200   13.8650   36.9910 C.3       6 GLP5        0.0000 
     19 O           6.1395   12.0370   29.8180 O.2       1 ALC1        0.0000 
     20 O           5.2980   12.4510   31.0380 O.2       7 ALL1        0.0000 
     21 O           6.9810   11.6230   28.5980 O.2       4 ALP1        0.0000 
     22 N           8.2660   12.3540   31.1820 N.am      2 SEC2        0.0000 
     23 N           7.2720   13.4320   31.7360 N.am      8 SEL2        0.0000 
     24 N           9.2600   11.2760   30.6280 N.am      5 SEP2        0.0000 
     25 CA          7.5845   16.1060   31.8155 C.3       3 GLC5        0.0000 
     26 CA          7.9160   14.3490   32.5170 C.3       9 GLL5        0.0000 
     27 CA          8.7290   13.5650   30.6730 C.3       3 GLC5        0.0000 
     28 CA          9.5420   12.7810   28.8290 C.3       6 GLP5        0.0000 
     29 CA          8.8145   12.3235   32.6990 C.3       3 GLC5        0.0000 
     30 CA          9.7130   10.2980   32.8810 C.3       6 GLP5        0.0000 
     31 CA          8.5735   13.5445   34.3045 C.3       3 GLC5        0.0000 
     32 CA          9.2310   12.7400   36.0920 C.3       6 GLP5        0.0000 
     33 CA          6.5880   14.4840   35.1985 C.3       3 GLC5        0.0000 
     34 CA          6.0560   15.1030   33.4060 C.3       9 GLL5        0.0000 
     35 N           4.7515   20.6730   43.4350 N.am      2 SEC2        0.0000 
     36 N           3.4600   20.3810   42.7790 N.am      8 SEL2        0.0000 
     37 N           6.0430   20.9650   44.0910 N.am      5 SEP2        0.0000 
     38 CA          5.7340   14.5415   40.2880 C.3       3 GLC5        0.0000 
     39 CA          5.0540   15.0890   42.2270 C.3       9 GLL5        0.0000 
     40 CA          6.4140   13.9940   38.3490 C.3       6 GLP5        0.0000 
     41 O           7.0515   15.8345   42.6035 O.2       1 ALC1        0.0000 
     42 O           6.1830   14.6660   43.0170 O.2       7 ALL1        0.0000 
     43 O           7.9200   17.0030   42.1900 O.2       4 ALP1        0.0000 
     44 CA          3.0280   13.5475   41.0255 C.3       3 GLC5        0.0000 
     45 CA          3.8230   14.3030   42.5770 C.3       9 GLL5        0.0000 
     46 CA          2.2330   12.7920   39.4740 C.3       6 GLP5        0.0000 
     47 CA          3.1580   16.3275   44.9715 C.3       3 GLC5        0.0000 
     48 CA          3.2870   14.9820   43.8360 C.3       9 GLL5        0.0000 
     49 CA          3.0290   17.6730   46.1070 C.3       6 GLP5        0.0000 
     50 CA          1.6365   13.4905   41.2755 C.3       3 GLC5        0.0000 
     51 CA          1.0400   14.1890   43.0770 C.3       9 GLL5        0.0000 
     52 CA          5.4405   15.7052   37.9967 C.3       3 GLC5        0.0000 
     53 CA          3.8010   17.3190   37.9800 C.3       9 GLL5        0.0000 
     54 CA          6.4545   16.2680   32.0807 C.3       3 GLC5        0.0000 
     55 CA          6.6700   15.2837   41.8683 C.3       3 GLC5        0.0000 
     56 CA          4.5740   16.4320   42.5040 C.3       9 GLL5        0.0000 
     57 CA          8.5260   14.8070   41.3710 C.3       6 GLP5        0.0000 
     58 CA          4.4800   16.9330   43.8042 C.3       3 GLC5        0.0000 
     59 CA          4.2760   17.9400   45.5480 C.3       6 GLP5        0.0000 
     60 CA          5.0509   14.3270   44.5070 C.3       3 GLC5        0.0000 
     61 CA          6.2390   13.8150   45.8950 C.3       6 GLP5        0.0000 
     62 CA         -0.5151   13.2984   46.3477 C.3       3 GLC5        0.0000 
     63 CA          1.1970   14.9940   45.4110 C.3       9 GLL5        0.0000 
     64 CA         -0.7900   11.9300   47.7230 C.3       6 GLP5        0.0000 
     65 CA          0.7534   12.4437   43.6672 C.3       3 GLC5        0.0000 
     66 CA          1.3080   10.6810   43.8440 C.3       6 GLP5        0.0000 
@<TRIPOS>BOND
@<TRIPOS>SUBSTRUCTURE
     1 ALC1        7 GROUP        1 X    ALC  0     ROOT ALC X 1
     2 SEC2       22 GROUP        1 X    SEC  0     **** SEC X 2
     3 GLC5        1 GROUP        1 X    GLC  0     **** GLC X 6
     4 ALP1        9 GROUP        1 Y    ALP  0     ROOT ALP Y 8
     5 SEP2       24 GROUP        1 Y    SEP  0     **** SEP Y 9
     6 GLP5        3 GROUP        1 Y    GLP  0     **** GLP Y 13
     7 ALL1        8 GROUP        1 Z    ALL  0     ROOT ALL Z 15
     8 SEL2       23 GROUP        1 Z    SEL  0     **** SEL Z 16
     9 GLL5        2 GROUP        1 Z    GLL  0     **** GLL Z 20
@<TRIPOS>SET

