#    Name: 1eno_NAD_1_ligand
#    Modification time : Tue Mar 25 00:05:31 2014

@<TRIPOS>MOLECULE
1eno_NAD_1_ligand
   70    74     1     0     0
SMALL
NO_CHARGES


@<TRIPOS>ATOM
      1 PA          2.8550   19.6040   38.8440 P.3       1 NAD501      0.0000 
      2 O1A         1.4830   19.2780   38.3810 O.co2     1 NAD501      0.0000 
      3 O2A         3.5640   20.4720   37.8750 O.co2     1 NAD501      0.0000 
      4 O5B         3.6750   18.2490   39.0630 O.3       1 NAD501      0.0000 
      5 C5B         3.8010   17.3190   37.9800 C.3       1 NAD501      0.0000 
      6 C4B         5.1330   17.5140   37.3090 C.3       1 NAD501      0.0000 
      7 O4B         5.3850   16.3760   36.4510 O.3       1 NAD501      0.0000 
      8 C3B         5.2600   18.7560   36.4240 C.3       1 NAD501      0.0000 
      9 O3B         6.5560   19.3670   36.5980 O.3       1 NAD501      0.0000 
     10 C2B         4.9990   18.1570   35.0430 C.3       1 NAD501      0.0000 
     11 O2B         5.5600   18.9250   33.9660 O.3       1 NAD501      0.0000 
     12 C1B         5.6680   16.8080   35.1610 C.3       1 NAD501      0.0000 
     13 N9A         5.1970   15.8420   34.1970 N.pl3     1 NAD501      0.0000 
     14 C8A         3.9330   15.4450   33.8980 C.2       1 NAD501      0.0000 
     15 N7A         3.9160   14.4580   32.9960 N.2       1 NAD501      0.0000 
     16 C5A         5.2560   14.2430   32.6890 C.ar      1 NAD501      0.0000 
     17 C6A         5.9170   13.3490   31.8010 C.ar      1 NAD501      0.0000 
     18 N6A         5.2980   12.4510   31.0380 N.pl3     1 NAD501      0.0000 
     19 N1A         7.2720   13.4320   31.7360 N.ar      1 NAD501      0.0000 
     20 C2A         7.9160   14.3490   32.5170 C.ar      1 NAD501      0.0000 
     21 N3A         7.4090   15.2010   33.3610 N.ar      1 NAD501      0.0000 
     22 C4A         6.0560   15.1030   33.4060 C.ar      1 NAD501      0.0000 
     23 O3          2.8880   20.1660   40.2890 O.3       1 NAD501      0.0000 
     24 PN          3.1110   19.4130   41.7270 P.3       1 NAD501      0.0000 
     25 O1N         1.8890   18.6510   42.0770 O.co2     1 NAD501      0.0000 
     26 O2N         3.4600   20.3810   42.7790 O.co2     1 NAD501      0.0000 
     27 O5D         4.3210   18.4720   41.3610 O.3       1 NAD501      0.0000 
     28 C5D         4.0540   17.0940   41.2840 C.3       1 NAD501      0.0000 
     29 C4D         4.5740   16.4320   42.5040 C.3       1 NAD501      0.0000 
     30 O4D         3.5120   16.3210   43.4930 O.3       1 NAD501      0.0000 
     31 C3D         5.0540   15.0890   42.2270 C.3       1 NAD501      0.0000 
     32 O3D         6.1830   14.6660   43.0170 O.3       1 NAD501      0.0000 
     33 C2D         3.8230   14.3030   42.5770 C.3       1 NAD501      0.0000 
     34 O2D         4.3540   13.1270   42.7050 O.3       1 NAD501      0.0000 
     35 C1D         3.2870   14.9820   43.8360 C.3       1 NAD501      0.0000 
     36 N1N         1.8010   14.7330   44.1230 N.pl3     1 NAD501      0.0000 
     37 C2N         1.1970   14.9940   45.4110 C.ar      1 NAD501      0.0000 
     38 C3N        -0.1660   14.8890   45.5190 C.ar      1 NAD501      0.0000 
     39 C7N        -0.8220   15.2050   46.9250 C.2       1 NAD501      0.0000 
     40 O7N        -0.1140   15.6150   47.8420 O.2       1 NAD501      0.0000 
     41 N7N        -2.1430   14.9740   47.0420 N.am      1 NAD501      0.0000 
     42 C4N        -0.9960   14.3920   44.4800 C.ar      1 NAD501      0.0000 
     43 C5N        -0.2890   14.0560   43.3280 C.ar      1 NAD501      0.0000 
     44 C6N         1.0400   14.1890   43.0770 C.ar      1 NAD501      0.0000 
     45 H           3.0117   17.4666   37.2339 H         1 NAD501      0.0000 
     46 H           3.7393   16.2836   38.3344 H         1 NAD501      0.0000 
     47 H           5.9150   17.5581   38.0641 H         1 NAD501      0.0000 
     48 H           4.4435   19.3956   36.6694 H         1 NAD501      0.0000 
     49 H           3.9488   17.9926   34.9513 H         1 NAD501      0.0000 
     50 H           6.7387   16.9702   35.0488 H         1 NAD501      0.0000 
     51 H           3.1256   15.8468   34.3065 H         1 NAD501      0.0000 
     52 H           5.7520   12.2161   30.1785 H         1 NAD501      0.0000 
     53 H           4.4347   12.0922   31.3930 H         1 NAD501      0.0000 
     54 H           9.0175   14.3498   32.3998 H         1 NAD501      0.0000 
     55 H           4.5328   16.6356   40.4054 H         1 NAD501      0.0000 
     56 H           2.9746   16.8926   41.2090 H         1 NAD501      0.0000 
     57 H           5.3798   17.0279   42.9180 H         1 NAD501      0.0000 
     58 H           5.2088   14.9750   41.1741 H         1 NAD501      0.0000 
     59 H           3.1452   14.4413   41.7785 H         1 NAD501      0.0000 
     60 H           3.8903   14.6881   44.6558 H         1 NAD501      0.0000 
     61 H           1.7921   15.2440   46.1872 H         1 NAD501      0.0000 
     62 H          -2.5504   15.1892   47.9295 H         1 NAD501      0.0000 
     63 H          -2.5992   14.6077   46.2310 H         1 NAD501      0.0000 
     64 H          -1.9623   14.3004   44.5768 H         1 NAD501      0.0000 
     65 H          -0.8963   13.6281   42.5236 H         1 NAD501      0.0000 
     66 H           1.4680   13.9236   42.2122 H         1 NAD501      0.0000 
     67 H           7.1274   18.6515   36.9999 H         1 NAD501      0.0000 
     68 H           6.2415   19.5162   34.3974 H         1 NAD501      0.0000 
     69 H           6.8711   15.3800   42.8878 H         1 NAD501      0.0000 
     70 H           5.3302   13.2973   42.8398 H         1 NAD501      0.0000 
@<TRIPOS>BOND
     1    2    1 ar   
     2    3    1 ar   
     3    4    1 1    
     4   23    1 1    
     5    5    4 1    
     6    6    5 1    
     7   45    5 1    
     8   46    5 1    
     9    7    6 1    
    10    8    6 1    
    11   47    6 1    
    12   12    7 1    
    13    9    8 1    
    14   10    8 1    
    15   48    8 1    
    16   67    9 1    
    17   11   10 1    
    18   12   10 1    
    19   49   10 1    
    20   68   11 1    
    21   13   12 1    
    22   50   12 1    
    23   14   13 1    
    24   22   13 1    
    25   15   14 2    
    26   51   14 1    
    27   16   15 1    
    28   17   16 ar   
    29   22   16 ar   
    30   18   17 1    
    31   19   17 ar   
    32   52   18 1    
    33   53   18 1    
    34   20   19 ar   
    35   21   20 ar   
    36   54   20 1    
    37   22   21 ar   
    38   24   23 1    
    39   25   24 ar   
    40   26   24 ar   
    41   27   24 1    
    42   28   27 1    
    43   29   28 1    
    44   55   28 1    
    45   56   28 1    
    46   30   29 1    
    47   31   29 1    
    48   57   29 1    
    49   35   30 1    
    50   32   31 1    
    51   33   31 1    
    52   58   31 1    
    53   69   32 1    
    54   34   33 1    
    55   35   33 1    
    56   59   33 1    
    57   70   34 1    
    58   36   35 1    
    59   60   35 1    
    60   37   36 ar   
    61   44   36 ar   
    62   38   37 ar   
    63   61   37 1    
    64   39   38 1    
    65   42   38 ar   
    66   40   39 2    
    67   41   39 am   
    68   62   41 1    
    69   63   41 1    
    70   43   42 ar   
    71   64   42 1    
    72   44   43 ar   
    73   65   43 1    
    74   66   44 1    
@<TRIPOS>SUBSTRUCTURE
     1 NAD501      1 GROUP   
@<TRIPOS>SET

