#    Name: 1s3s_ADP_2_INTS_M
#    Modification time : Tue Mar 25 01:54:10 2014

@<TRIPOS>MOLECULE
1s3s_ADP_2_INTS_M
   70     0    12     0     0
SMALL
NO_CHARGES


@<TRIPOS>ATOM
      1 N         -17.8270  -13.3970   19.4335 N.am      2 SEC2        0.0000 
      2 N         -16.4620  -13.3970   18.7530 N.am     10 SEL2        0.0000 
      3 N         -19.1920  -13.3970   20.1140 N.am      6 SEP2        0.0000 
      4 N         -16.6590  -13.5300   20.3070 N.am      2 SEC2        0.0000 
      5 N         -16.8560  -13.6630   21.8610 N.am      6 SEP2        0.0000 
      6 NZ        -16.3500  -14.4435   15.6155 N.4       3 LYC4        0.0000 
      7 NZ        -16.3510  -12.9270   16.2990 N.4      11 LYL4        0.0000 
      8 NZ        -16.3490  -15.9600   14.9320 N.4       7 LYP4        0.0000 
      9 N         -17.4515  -11.9725   15.9230 N.am      2 SEC2        0.0000 
     10 N         -16.3510  -12.9270   16.2990 N.am     10 SEL2        0.0000 
     11 N         -18.5520  -11.0180   15.5470 N.am      6 SEP2        0.0000 
     12 N         -17.9495  -12.9500   16.7850 N.am      2 SEC2        0.0000 
     13 N         -19.5480  -12.9730   17.2710 N.am      6 SEP2        0.0000 
     14 N         -16.3500  -14.4435   15.6155 N.am      2 SEC2        0.0000 
     15 N         -16.3490  -15.9600   14.9320 N.am      6 SEP2        0.0000 
     16 N         -14.1035  -12.2430   16.3000 N.am      2 SEC2        0.0000 
     17 N         -14.3060  -12.7780   17.7660 N.am     10 SEL2        0.0000 
     18 N         -13.9010  -11.7080   14.8340 N.am      6 SEP2        0.0000 
     19 N         -19.1810  -10.9280   20.1450 N.am      2 SEC2        0.0000 
     20 N         -17.9890  -10.6640   19.4110 N.am     10 SEL2        0.0000 
     21 N         -20.3730  -11.1920   20.8790 N.am      6 SEP2        0.0000 
     22 N         -17.3035  -11.0505   16.7525 N.am      2 SEC2        0.0000 
     23 N         -16.0550  -11.0830   17.9580 N.am     10 SEL2        0.0000 
     24 CA        -15.1445   -9.2480   16.3205 C.3       4 GLC5        0.0000 
     25 CA        -15.8510   -8.1330   17.8910 C.3      12 GLL5        0.0000 
     26 CA        -14.4380  -10.3630   14.7500 C.3       8 GLP5        0.0000 
     27 O         -18.0750   -2.9050   17.9650 O.2       1 ALC1        0.0000 
     28 O         -17.6560   -3.9330   19.1060 O.2       9 ALL1        0.0000 
     29 O         -18.4940   -1.8770   16.8240 O.2       5 ALP1        0.0000 
     30 CA        -15.8110   -5.5430   15.7915 C.3       4 GLC5        0.0000 
     31 CA        -17.4550   -5.2790   16.9890 C.3      12 GLL5        0.0000 
     32 CA        -14.1670   -5.8070   14.5940 C.3       8 GLP5        0.0000 
     33 CA        -16.4565   -3.6720   16.4500 C.3       4 GLC5        0.0000 
     34 CA        -15.4580   -2.0650   15.9110 C.3       8 GLP5        0.0000 
     35 CA        -19.8515   -8.6375   15.7115 C.3       4 GLC5        0.0000 
     36 CA        -20.1380   -6.6170   14.9050 C.3      12 GLL5        0.0000 
     37 CA        -19.5650  -10.6580   16.5180 C.3       8 GLP5        0.0000 
     38 CA        -20.4805   -5.8430   12.9005 C.3       4 GLC5        0.0000 
     39 CA        -20.8230   -5.0690   10.8960 C.3       8 GLP5        0.0000 
     40 CA        -23.3510   -6.1300   15.4385 C.3       4 GLC5        0.0000 
     41 CA        -21.4280   -6.3960   14.4090 C.3      12 GLL5        0.0000 
     42 CA        -25.2740   -5.8640   16.4680 C.3       8 GLP5        0.0000 
     43 CA        -21.5495   -5.1965   12.9610 C.3       4 GLC5        0.0000 
     44 CA        -21.6710   -3.9970   11.5130 C.3       8 GLP5        0.0000 
     45 O         -23.0375   -6.9820   12.7650 O.2       1 ALC1        0.0000 
     46 O         -21.9970   -7.3090   13.6250 O.2       9 ALL1        0.0000 
     47 O         -24.0780   -6.6550   11.9050 O.2       5 ALP1        0.0000 
     48 N         -23.5585   -5.3040   14.3965 N.am      2 SEC2        0.0000 
     49 N         -22.1060   -5.2170   14.6970 N.am     10 SEL2        0.0000 
     50 N         -25.0110   -5.3910   14.0960 N.am      6 SEP2        0.0000 
     51 CA        -23.4220   -5.0580   15.9795 C.3       4 GLC5        0.0000 
     52 CA        -21.5700   -4.2520   15.4910 C.3      12 GLL5        0.0000 
     53 CA        -21.5135   -5.6765   16.9460 C.3       4 GLC5        0.0000 
     54 CA        -21.4570   -7.1010   18.4010 C.3       8 GLP5        0.0000 
     55 CA        -20.7040   -3.4875   14.0450 C.3       4 GLC5        0.0000 
     56 CA        -19.8380   -2.7230   12.5990 C.3       8 GLP5        0.0000 
     57 CA        -23.0420   -3.0755   15.0560 C.3       4 GLC5        0.0000 
     58 CA        -24.5140   -1.8990   14.6210 C.3       8 GLP5        0.0000 
     59 CA        -20.0575   -2.6110   15.6450 C.3       4 GLC5        0.0000 
     60 CA        -18.5450   -0.9700   15.7990 C.3       8 GLP5        0.0000 
     61 CA        -19.7185   -4.1695   14.1705 C.3       4 GLC5        0.0000 
     62 CA        -19.5990   -5.6160   15.7420 C.3      12 GLL5        0.0000 
     63 CA        -14.6635   -7.1825   16.6133 C.3       4 GLC5        0.0000 
     64 CA        -16.0430   -6.6550   18.2960 C.3      12 GLL5        0.0000 
     65 CA        -13.3800   -6.9710   15.1330 C.3       8 GLP5        0.0000 
     66 CA        -19.5553   -6.4307   18.5742 C.3       4 GLC5        0.0000 
     67 CA        -17.3490   -6.3630   19.0740 C.3      12 GLL5        0.0000 
     68 CA        -18.5672   -6.0633   13.8953 C.3       4 GLC5        0.0000 
     69 CA        -17.2660   -6.0100   12.4670 C.3       8 GLP5        0.0000 
     70 CA        -20.8240   -6.5811   16.8002 C.3       4 GLC5        0.0000 
@<TRIPOS>BOND
@<TRIPOS>SUBSTRUCTURE
     1 ALC1       27 GROUP        1 X    ALC  0     ROOT ALC X 1
     2 SEC2        1 GROUP        1 X    SEC  0     **** SEC X 2
     3 LYC4        6 GROUP        1 X    LYC  0     **** LYC X 4
     4 GLC5       24 GROUP        1 X    GLC  0     **** GLC X 6
     5 ALP1       29 GROUP        1 Y    ALP  0     ROOT ALP Y 8
     6 SEP2        3 GROUP        1 Y    SEP  0     **** SEP Y 9
     7 LYP4        8 GROUP        1 Y    LYP  0     **** LYP Y 11
     8 GLP5       26 GROUP        1 Y    GLP  0     **** GLP Y 13
     9 ALL1       28 GROUP        1 Z    ALL  0     ROOT ALL Z 15
    10 SEL2        2 GROUP        1 Z    SEL  0     **** SEL Z 16
    11 LYL4        7 GROUP        1 Z    LYL  0     **** LYL Z 18
    12 GLL5       25 GROUP        1 Z    GLL  0     **** GLL Z 20
@<TRIPOS>SET

