#    Name: 1s3s_ADP_2_ligand
#    Modification time : Tue Mar 25 01:54:10 2014

@<TRIPOS>MOLECULE
1s3s_ADP_2_ligand
   39    41     1     0     0
SMALL
NO_CHARGES


@<TRIPOS>ATOM
      1 PB        -15.7650  -12.5780   17.7320 P.3       1 ADP801      0.0000 
      2 O1B       -16.4620  -13.3970   18.7530 O.co2     1 ADP801      0.0000 
      3 O2B       -16.3510  -12.9270   16.2990 O.co2     1 ADP801      0.0000 
      4 O3B       -14.3060  -12.7780   17.7660 O.co2     1 ADP801      0.0000 
      5 PA        -16.5910  -10.3330   19.1970 P.3       1 ADP801      0.0000 
      6 O1A       -17.9890  -10.6640   19.4110 O.co2     1 ADP801      0.0000 
      7 O2A       -15.8130  -10.6630   20.3800 O.co2     1 ADP801      0.0000 
      8 O3A       -16.0550  -11.0830   17.9580 O.3       1 ADP801      0.0000 
      9 O5'       -16.4160   -8.8220   18.9750 O.3       1 ADP801      0.0000 
     10 C5'       -15.8510   -8.1330   17.8910 C.3       1 ADP801      0.0000 
     11 C4'       -16.0430   -6.6550   18.2960 C.3       1 ADP801      0.0000 
     12 O4'       -16.1950   -5.9800   17.0580 O.3       1 ADP801      0.0000 
     13 C3'       -17.3490   -6.3630   19.0740 C.3       1 ADP801      0.0000 
     14 O3'       -17.1600   -6.1680   20.4800 O.3       1 ADP801      0.0000 
     15 C2'       -17.9580   -5.1580   18.4210 C.3       1 ADP801      0.0000 
     16 O2'       -17.6560   -3.9330   19.1060 O.3       1 ADP801      0.0000 
     17 C1'       -17.4550   -5.2790   16.9890 C.3       1 ADP801      0.0000 
     18 N9        -18.4160   -6.0270   16.0950 N.pl3     1 ADP801      0.0000 
     19 C8        -18.2250   -7.2360   15.5370 C.2       1 ADP801      0.0000 
     20 N7        -19.2720   -7.5750   14.8360 N.2       1 ADP801      0.0000 
     21 C5        -20.1380   -6.6170   14.9050 C.ar      1 ADP801      0.0000 
     22 C6        -21.4280   -6.3960   14.4090 C.ar      1 ADP801      0.0000 
     23 N6        -21.9970   -7.3090   13.6250 N.pl3     1 ADP801      0.0000 
     24 N1        -22.1060   -5.2170   14.6970 N.ar      1 ADP801      0.0000 
     25 C2        -21.5700   -4.2520   15.4910 C.ar      1 ADP801      0.0000 
     26 N3        -20.3230   -4.4600   15.9920 N.ar      1 ADP801      0.0000 
     27 C4        -19.5990   -5.6160   15.7420 C.ar      1 ADP801      0.0000 
     28 H         -16.3763   -8.2856   16.9717 H         1 ADP801      0.0000 
     29 H         -14.8005   -8.3029   17.7820 H         1 ADP801      0.0000 
     30 H         -15.2141   -6.3121   18.8271 H         1 ADP801      0.0000 
     31 H         -18.0186   -7.2087   18.8739 H         1 ADP801      0.0000 
     32 H         -19.0411   -5.3504   18.3818 H         1 ADP801      0.0000 
     33 H         -17.3017   -4.2845   16.6014 H         1 ADP801      0.0000 
     34 H         -17.4051   -7.7700   15.6545 H         1 ADP801      0.0000 
     35 H         -21.4469   -8.1190   13.4220 H         1 ADP801      0.0000 
     36 H         -22.9233   -7.1025   13.3097 H         1 ADP801      0.0000 
     37 H         -22.0891   -3.3954   15.7051 H         1 ADP801      0.0000 
     38 H         -17.3654   -5.2020   20.6371 H         1 ADP801      0.0000 
     39 H         -18.2633   -3.2516   18.6974 H         1 ADP801      0.0000 
@<TRIPOS>BOND
     1    2    1 ar   
     2    3    1 ar   
     3    4    1 ar   
     4    8    1 1    
     5    6    5 ar   
     6    7    5 ar   
     7    8    5 1    
     8    9    5 1    
     9   10    9 1    
    10   11   10 1    
    11   28   10 1    
    12   29   10 1    
    13   12   11 1    
    14   13   11 1    
    15   30   11 1    
    16   17   12 1    
    17   14   13 1    
    18   15   13 1    
    19   31   13 1    
    20   38   14 1    
    21   16   15 1    
    22   17   15 1    
    23   32   15 1    
    24   39   16 1    
    25   18   17 1    
    26   33   17 1    
    27   19   18 1    
    28   27   18 1    
    29   20   19 2    
    30   34   19 1    
    31   21   20 1    
    32   22   21 ar   
    33   27   21 ar   
    34   23   22 1    
    35   24   22 ar   
    36   35   23 1    
    37   36   23 1    
    38   25   24 ar   
    39   26   25 ar   
    40   37   25 1    
    41   27   26 ar   
@<TRIPOS>SUBSTRUCTURE
     1 ADP801      1 GROUP   
@<TRIPOS>SET

