#    Name: 2uzb_C75_1_INTS_M
#    Modification time : Tue Mar 25 00:33:17 2014

@<TRIPOS>MOLECULE
2uzb_C75_1_INTS_M
   47     0     9     0     0
SMALL
NO_CHARGES


@<TRIPOS>ATOM
      1 N          37.8460   21.7790   -6.6980 N.am      2 SEC2        0.0000 
      2 N          39.3900   22.0360   -6.6480 N.am      8 SEL2        0.0000 
      3 N          36.3020   21.5220   -6.7480 N.am      5 SEP2        0.0000 
      4 CA         37.7825   22.0820   -4.3775 C.3       3 GLC5        0.0000 
      5 CA         39.3740   20.8010   -3.7150 C.3       9 GLL5        0.0000 
      6 CA         36.1910   23.3630   -5.0400 C.3       6 GLP5        0.0000 
      7 CA         39.4440   18.2560   -0.0935 C.3       3 GLC5        0.0000 
      8 CA         37.7900   18.1650   -1.6130 C.3       9 GLL5        0.0000 
      9 CA         41.0980   18.3470    1.4260 C.3       6 GLP5        0.0000 
     10 CA         38.9710   18.2555    0.9185 C.3       3 GLC5        0.0000 
     11 CA         36.8440   18.1640    0.4110 C.3       9 GLL5        0.0000 
     12 CA         36.3085   17.3560    3.4795 C.3       3 GLC5        0.0000 
     13 CA         36.3720   18.6330    1.7370 C.3       9 GLL5        0.0000 
     14 CA         36.2450   16.0790    5.2220 C.3       6 GLP5        0.0000 
     15 CA         34.4825   20.5275    1.8320 C.3       3 GLC5        0.0000 
     16 CA         36.5570   19.8860    2.1790 C.3       9 GLL5        0.0000 
     17 CA         32.4080   21.1690    1.4850 C.3       6 GLP5        0.0000 
     18 CA         39.3595   20.7240    2.1290 C.3       3 GLC5        0.0000 
     19 CA         37.3160   21.1160    1.3590 C.3       9 GLL5        0.0000 
     20 CA         41.4030   20.3320    2.8990 C.3       6 GLP5        0.0000 
     21 CA         37.8455   21.7985    4.6375 C.3       3 GLC5        0.0000 
     22 CA         37.1460   22.2620    2.5500 C.3       9 GLL5        0.0000 
     23 CA         38.5450   21.3350    6.7250 C.3       6 GLP5        0.0000 
     24 CA         35.9900   23.2955    3.3285 C.3       3 GLC5        0.0000 
     25 CA         34.8340   24.3290    4.1070 C.3       6 GLP5        0.0000 
     26 O          37.1415   24.6270    3.5360 O.2       1 ALC1        0.0000 
     27 O          37.5550   23.4630    2.5150 O.2       7 ALL1        0.0000 
     28 O          36.7280   25.7910    4.5570 O.2       4 ALP1        0.0000 
     29 CA         40.3157   17.7527   -3.2518 C.3       3 GLC5        0.0000 
     30 CA         39.3440   18.7830   -5.0540 C.3       9 GLL5        0.0000 
     31 CA         41.5830   17.0720   -1.9740 C.3       6 GLP5        0.0000 
     32 CA         37.9140   19.0474   -6.1119 C.3       3 GLC5        0.0000 
     33 CA         38.7530   18.0840   -4.0050 C.3       9 GLL5        0.0000 
     34 CA         36.7000   19.3250   -7.7340 C.3       6 GLP5        0.0000 
     35 CA         40.1030   18.2485   -2.3600 C.3       3 GLC5        0.0000 
     36 CA         38.4680   18.7510   -2.8150 C.3       9 GLL5        0.0000 
     37 CA         37.1385   20.4790   -3.0255 C.3       3 GLC5        0.0000 
     38 CA         38.7780   20.0990   -2.6770 C.3       9 GLL5        0.0000 
     39 CA         35.2010   20.5080   -2.8550 C.3       6 GLP5        0.0000 
     40 CA         39.5622   17.2985   -1.7397 C.3       3 GLC5        0.0000 
     41 CA         36.7006   19.3996   -2.6833 C.3       3 GLC5        0.0000 
     42 CA         35.4075   17.9995   -0.9760 C.3       3 GLC5        0.0000 
     43 CA         36.6990   16.8930   -0.1400 C.3       9 GLL5        0.0000 
     44 CA         33.8190   19.1100   -1.1830 C.3       6 GLP5        0.0000 
     45 CA         37.6075   16.0517    0.4560 C.3       3 GLC5        0.0000 
     46 CA         38.2950   14.5770    1.0910 C.3       6 GLP5        0.0000 
     47 CA         35.2007   19.1261    0.2217 C.3       3 GLC5        0.0000 
@<TRIPOS>BOND
@<TRIPOS>SUBSTRUCTURE
     1 ALC1       26 GROUP        1 X    ALC  0     ROOT ALC X 1
     2 SEC2        1 GROUP        1 X    SEC  0     **** SEC X 2
     3 GLC5        4 GROUP        1 X    GLC  0     **** GLC X 6
     4 ALP1       28 GROUP        1 Y    ALP  0     ROOT ALP Y 8
     5 SEP2        3 GROUP        1 Y    SEP  0     **** SEP Y 9
     6 GLP5        6 GROUP        1 Y    GLP  0     **** GLP Y 13
     7 ALL1       27 GROUP        1 Z    ALL  0     ROOT ALL Z 15
     8 SEL2        2 GROUP        1 Z    SEL  0     **** SEL Z 16
     9 GLL5        5 GROUP        1 Z    GLL  0     **** GLL Z 20
@<TRIPOS>SET

