#    Name: 2uzb_C75_1_ligand
#    Modification time : Tue Mar 25 00:33:17 2014

@<TRIPOS>MOLECULE
2uzb_C75_1_ligand
   37    39     1     0     0
SMALL
NO_CHARGES


@<TRIPOS>ATOM
      1 O4         39.3900   22.0360   -6.6480 O.2       1 C751297     0.0000 
      2 S2         40.3850   21.1280   -6.1480 S.o2      1 C751297     0.0000 
      3 O3         40.8560   20.2940   -7.2180 O.2       1 C751297     0.0000 
      4 N6         41.6120   21.9580   -5.5390 N.pl3     1 C751297     0.0000 
      5 C61        41.4710   23.2550   -4.9520 C.3       1 C751297     0.0000 
      6 C16        39.6620   20.1280   -4.8950 C.ar      1 C751297     0.0000 
      7 C15        39.3440   18.7830   -5.0540 C.ar      1 C751297     0.0000 
      8 C14        38.7530   18.0840   -4.0050 C.ar      1 C751297     0.0000 
      9 C13        38.4680   18.7510   -2.8150 C.ar      1 C751297     0.0000 
     10 C18        38.7780   20.0990   -2.6770 C.ar      1 C751297     0.0000 
     11 C17        39.3740   20.8010   -3.7150 C.ar      1 C751297     0.0000 
     12 C4         37.7900   18.1650   -1.6130 C.2       1 C751297     0.0000 
     13 O2         37.5200   18.9210   -0.5040 O.3       1 C751297     0.0000 
     14 C3         37.2930   16.8850   -1.3980 C.2       1 C751297     0.0000 
     15 C2         36.6990   16.8930   -0.1400 C.2       1 C751297     0.0000 
     16 C1         36.8440   18.1640    0.4110 C.2       1 C751297     0.0000 
     17 C6         36.3720   18.6330    1.7370 C.2       1 C751297     0.0000 
     18 C7         36.5570   19.8860    2.1790 C.2       1 C751297     0.0000 
     19 S1         37.3160   21.1160    1.3590 S.3       1 C751297     0.0000 
     20 C9         37.1460   22.2620    2.5500 C.2       1 C751297     0.0000 
     21 N3         37.5550   23.4630    2.5150 N.pl3     1 C751297     0.0000 
     22 N2         36.4880   21.6990    3.5590 N.am      1 C751297     0.0000 
     23 C8         36.1580   20.4200    3.4010 C.2       1 C751297     0.0000 
     24 O1         35.5400   19.8280    4.2820 O.2       1 C751297     0.0000 
     25 H          42.5059   21.4815   -5.6055 H         1 C751297     0.0000 
     26 H          39.5441   18.3074   -5.9410 H         1 C751297     0.0000 
     27 H          38.5300   17.0909   -4.1060 H         1 C751297     0.0000 
     28 H          38.5613   20.5838   -1.7892 H         1 C751297     0.0000 
     29 H          39.5962   21.7911   -3.6138 H         1 C751297     0.0000 
     30 H          37.3472   16.1562   -1.9866 H         1 C751297     0.0000 
     31 H          36.2666   16.1556    0.2746 H         1 C751297     0.0000 
     32 H          35.8796   17.9103    2.3090 H         1 C751297     0.0000 
     33 H          36.2495   22.2184    4.4068 H         1 C751297     0.0000 
     34 H          42.3464   23.6127   -4.6269 H         1 C751297     0.0000 
     35 H          41.1065   23.9200   -5.6038 H         1 C751297     0.0000 
     36 H          40.8503   23.2424   -4.1681 H         1 C751297     0.0000 
     37 H          37.1348   23.9026    3.3088 H         1 C751297     0.0000 
@<TRIPOS>BOND
     1    2    1 2    
     2    3    2 2    
     3    4    2 1    
     4    6    2 1    
     5    5    4 1    
     6   25    4 1    
     7   34    5 1    
     8   35    5 1    
     9   36    5 1    
    10    7    6 ar   
    11   11    6 ar   
    12    8    7 ar   
    13   26    7 1    
    14    9    8 ar   
    15   27    8 1    
    16   10    9 ar   
    17   12    9 1    
    18   11   10 ar   
    19   28   10 1    
    20   29   11 1    
    21   13   12 1    
    22   14   12 2    
    23   16   13 1    
    24   15   14 1    
    25   30   14 1    
    26   16   15 2    
    27   31   15 1    
    28   17   16 1    
    29   18   17 2    
    30   32   17 1    
    31   19   18 1    
    32   23   18 1    
    33   20   19 1    
    34   21   20 2    
    35   22   20 1    
    36   37   21 1    
    37   23   22 am   
    38   33   22 1    
    39   24   23 2    
@<TRIPOS>SUBSTRUCTURE
     1 C751297     1 GROUP   
@<TRIPOS>SET

