#    Name: 4fv7_E94_1_INTS_M
#    Modification time : Mon Mar 24 20:51:18 2014

@<TRIPOS>MOLECULE
4fv7_E94_1_INTS_M
  103     0     9     0     0
SMALL
NO_CHARGES


@<TRIPOS>ATOM
      1 N          12.0615    4.9630   18.4035 N.am      2 SEC2        0.0000 
      2 N          13.0230    5.1630   17.1880 N.am      8 SEL2        0.0000 
      3 N          11.1000    4.7630   19.6190 N.am      5 SEP2        0.0000 
      4 CA         12.8115    6.8910   16.5790 C.3       3 GLC5        0.0000 
      5 CA         14.0980    5.2760   16.8170 C.3       9 GLL5        0.0000 
      6 CA         11.5250    8.5060   16.3410 C.3       6 GLP5        0.0000 
      7 CA         13.6030    5.3450   18.8600 C.3       3 GLC5        0.0000 
      8 CA         13.1080    5.4140   20.9030 C.3       6 GLP5        0.0000 
      9 CA         12.6780    4.4165   15.7260 C.3       3 GLC5        0.0000 
     10 CA         11.2580    3.5570   14.6350 C.3       6 GLP5        0.0000 
     11 CA         18.0660    6.3385   18.8345 C.3       3 GLC5        0.0000 
     12 CA         17.6820    4.4650   19.0830 C.3       9 GLL5        0.0000 
     13 CA         18.4500    8.2120   18.5860 C.3       6 GLP5        0.0000 
     14 CA         18.7920    4.8630   21.7555 C.3       3 GLC5        0.0000 
     15 CA         17.7160    3.8530   20.3270 C.3       9 GLL5        0.0000 
     16 CA         19.8680    5.8730   23.1840 C.3       6 GLP5        0.0000 
     17 CA         13.7130    3.5920   20.6315 C.3       3 GLC5        0.0000 
     18 CA         14.3180    1.7700   20.3600 C.3       9 GLL5        0.0000 
     19 CA         13.5560    0.1390   20.3950 C.3       3 GLC5        0.0000 
     20 CA         12.7940   -1.4920   20.4300 C.3       6 GLP5        0.0000 
     21 CA         14.9460    1.1755   21.9510 C.3       3 GLC5        0.0000 
     22 CA         15.5740    0.5810   23.5420 C.3       6 GLP5        0.0000 
     23 O          13.4000    6.6955   13.9965 O.2       1 ALC1        0.0000 
     24 O          14.6910    6.7560   14.3030 O.2       7 ALL1        0.0000 
     25 O          12.1090    6.6350   13.6900 O.2       4 ALP1        0.0000 
     26 O          16.8635    8.6605   11.7205 O.2       1 ALC1        0.0000 
     27 O          16.3360    9.6810   12.4680 O.2       7 ALL1        0.0000 
     28 O          17.3910    7.6400   10.9730 O.2       4 ALP1        0.0000 
     29 CA         18.7340   10.4275   14.3840 C.3       3 GLC5        0.0000 
     30 CA         17.3230   10.6980   12.9590 C.3       9 GLL5        0.0000 
     31 CA         20.1450   10.1570   15.8090 C.3       6 GLP5        0.0000 
     32 CA         17.1420   11.9665   14.6525 C.3       3 GLC5        0.0000 
     33 CA         16.9610   13.2350   16.3460 C.3       6 GLP5        0.0000 
     34 CA         18.0295    4.9835   13.1105 C.3       3 GLC5        0.0000 
     35 CA         17.3180    6.0200   14.6690 C.3       9 GLL5        0.0000 
     36 CA         18.7410    3.9470   11.5520 C.3       6 GLP5        0.0000 
     37 CA         16.3015    4.4810   13.7685 C.3       3 GLC5        0.0000 
     38 CA         15.2850    2.9420   12.8680 C.3       6 GLP5        0.0000 
     39 CA         18.0795    6.6235   17.3140 C.3       3 GLC5        0.0000 
     40 CA         17.7090    5.0350   16.0420 C.3       9 GLL5        0.0000 
     41 CA         20.7475    0.9720   16.1940 C.3       3 GLC5        0.0000 
     42 CA         20.7390    2.9300   16.3160 C.3       9 GLL5        0.0000 
     43 CA         20.7560   -0.9860   16.0720 C.3       6 GLP5        0.0000 
     44 CA         20.3085    1.5790   18.0625 C.3       3 GLC5        0.0000 
     45 CA         19.8780    0.2280   19.8090 C.3       6 GLP5        0.0000 
     46 CA         22.9090    2.9010   16.7320 C.3       3 GLC5        0.0000 
     47 CA         25.0790    2.8720   17.1480 C.3       6 GLP5        0.0000 
     48 CA         21.6960    1.8425   14.7860 C.3       3 GLC5        0.0000 
     49 CA         22.6530    0.7550   13.2560 C.3       6 GLP5        0.0000 
     50 N          23.0120    3.2050   15.2340 N.am      2 SEC2        0.0000 
     51 N          21.6460    3.6470   15.6290 N.am      8 SEL2        0.0000 
     52 N          24.3780    2.7630   14.8390 N.am      5 SEP2        0.0000 
     53 CA         21.4745    4.8430   17.0705 C.3       3 GLC5        0.0000 
     54 CA         21.2150    4.8180   15.1430 C.3       9 GLL5        0.0000 
     55 CA         21.7340    4.8680   18.9980 C.3       6 GLP5        0.0000 
     56 CA         23.0730    5.4450   15.9675 C.3       3 GLC5        0.0000 
     57 CA         24.9310    6.0720   16.7920 C.3       6 GLP5        0.0000 
     58 CA         22.1700    3.4805   13.9690 C.3       3 GLC5        0.0000 
     59 CA         23.1250    2.1430   12.7950 C.3       6 GLP5        0.0000 
     60 CA         20.1125    3.4870   14.1925 C.3       3 GLC5        0.0000 
     61 CA         19.0100    2.1560   13.2420 C.3       6 GLP5        0.0000 
     62 O          23.3760    5.2485   13.8755 O.2       1 ALC1        0.0000 
     63 O          22.0870    5.5820   14.4350 O.2       7 ALL1        0.0000 
     64 O          24.6650    4.9150   13.3160 O.2       4 ALP1        0.0000 
     65 CA         19.7525    5.5080   12.2720 C.3       3 GLC5        0.0000 
     66 CA         20.7640    7.0690   12.9920 C.3       9 GLL5        0.0000 
     67 CA         15.4095    4.3540   14.2812 C.3       3 GLC5        0.0000 
     68 CA         15.4250    5.4130   16.2970 C.3       9 GLL5        0.0000 
     69 CA         16.2920    6.5142   18.1307 C.3       3 GLC5        0.0000 
     70 CA         16.6160    4.8290   16.8470 C.3       9 GLL5        0.0000 
     71 CA         15.9610    8.5080   18.7360 C.3       6 GLP5        0.0000 
     72 CA         16.2180    5.1422   20.2922 C.3       3 GLC5        0.0000 
     73 CA         16.6300    4.2120   18.2040 C.3       9 GLL5        0.0000 
     74 CA         15.2800    5.9460   21.9410 C.3       6 GLP5        0.0000 
     75 CA         14.3667    4.2402   20.0647 C.3       3 GLC5        0.0000 
     76 CA         15.6410    2.7830   19.8550 C.3       9 GLL5        0.0000 
     77 CA         19.7165    4.5135   19.3515 C.3       3 GLC5        0.0000 
     78 CA         16.2422    4.6877   21.2327 C.3       3 GLC5        0.0000 
     79 CA         15.8705    1.7377   21.9153 C.3       3 GLC5        0.0000 
     80 CA         16.6930    3.0060   20.7220 C.3       9 GLL5        0.0000 
     81 CA         17.4344    1.5076   20.2279 C.3       3 GLC5        0.0000 
     82 CA         18.4460   -0.0910   20.2660 C.3       6 GLP5        0.0000 
     83 CA         15.5816    7.1199   17.2803 C.3       3 GLC5        0.0000 
     84 CA         19.2643   11.6480   10.4235 C.3       3 GLC5        0.0000 
     85 CA         18.0220   11.3800   11.8020 C.3       9 GLL5        0.0000 
     86 CA         21.0050   11.5890    9.5150 C.3       6 GLP5        0.0000 
     87 CA         14.9470    9.5102    9.5975 C.3       3 GLC5        0.0000 
     88 CA         15.9690   11.0360   10.4110 C.3       9 GLL5        0.0000 
     89 CA         14.2520    8.3330    8.1950 C.3       6 GLP5        0.0000 
     90 CA         18.7070    3.4758   14.6270 C.3       3 GLC5        0.0000 
     91 CA         19.5483    2.6438   14.8358 C.3       3 GLC5        0.0000 
     92 CA         19.4340    3.3330   16.5430 C.3       9 GLL5        0.0000 
     93 CA         20.8684    4.1526   17.6436 C.3       3 GLC5        0.0000 
     94 CA         22.4920    8.0715   15.4423 C.3       3 GLC5        0.0000 
     95 CA         21.9590    6.7260   13.6170 C.3       9 GLL5        0.0000 
     96 CA         22.5020    8.9580   17.2570 C.3       6 GLP5        0.0000 
     97 CA         23.7065    6.6285   15.2097 C.3       3 GLC5        0.0000 
     98 CA         23.0050    7.6440   13.6380 C.3       9 GLL5        0.0000 
     99 CA         20.4192    8.9260   14.2530 C.3       3 GLC5        0.0000 
    100 CA         21.0725   10.1863   10.9710 C.3       3 GLC5        0.0000 
    101 CA         20.6230    8.3210   12.4020 C.3       9 GLL5        0.0000 
    102 CA         21.1980    9.6170   14.2888 C.3       3 GLC5        0.0000 
    103 CA         21.6570    9.2460   12.4520 C.3       9 GLL5        0.0000 
@<TRIPOS>BOND
@<TRIPOS>SUBSTRUCTURE
     1 ALC1       23 GROUP        1 X    ALC  0     ROOT ALC X 1
     2 SEC2        1 GROUP        1 X    SEC  0     **** SEC X 2
     3 GLC5        4 GROUP        1 X    GLC  0     **** GLC X 6
     4 ALP1       25 GROUP        1 Y    ALP  0     ROOT ALP Y 8
     5 SEP2        3 GROUP        1 Y    SEP  0     **** SEP Y 9
     6 GLP5        6 GROUP        1 Y    GLP  0     **** GLP Y 13
     7 ALL1       24 GROUP        1 Z    ALL  0     ROOT ALL Z 15
     8 SEL2        2 GROUP        1 Z    SEL  0     **** SEL Z 16
     9 GLL5        5 GROUP        1 Z    GLL  0     **** GLL Z 20
@<TRIPOS>SET

