#    Name: 4fv7_E94_1_ligand
#    Modification time : Mon Mar 24 20:51:18 2014

@<TRIPOS>MOLECULE
4fv7_E94_1_ligand
   65    69     1     0     0
SMALL
NO_CHARGES


@<TRIPOS>ATOM
      1 N3         13.0230    5.1630   17.1880 N.1       1 E94401      0.0000 
      2 C18        14.0980    5.2760   16.8170 C.1       1 E94401      0.0000 
      3 C17        15.4250    5.4130   16.2970 C.2       1 E94401      0.0000 
      4 C7         16.6160    4.8290   16.8470 C.2       1 E94401      0.0000 
      5 C3         16.6300    4.2120   18.2040 C.ar      1 E94401      0.0000 
      6 C2         15.6100    3.3500   18.5980 C.ar      1 E94401      0.0000 
      7 C4         17.6820    4.4650   19.0830 C.ar      1 E94401      0.0000 
      8 C5         17.7160    3.8530   20.3270 C.ar      1 E94401      0.0000 
      9 C6         16.6930    3.0060   20.7220 C.ar      1 E94401      0.0000 
     10 C1         15.6410    2.7830   19.8550 C.ar      1 E94401      0.0000 
     11 CL         14.3180    1.7700   20.3600 Cl        1 E94401      0.0000 
     12 C9         15.6430    6.1190   15.0920 C.2       1 E94401      0.0000 
     13 N1         14.6910    6.7560   14.3030 N.pl3     1 E94401      0.0000 
     14 C10        15.0850    7.5980   13.1800 C.3       1 E94401      0.0000 
     15 C11        15.7000    8.9230   13.6040 C.3       1 E94401      0.0000 
     16 N2         16.3360    9.6810   12.4680 N.4       1 E94401      0.0000 
     17 C16        17.3230   10.6980   12.9590 C.3       1 E94401      0.0000 
     18 C15        18.0220   11.3800   11.8020 C.3       1 E94401      0.0000 
     19 C14        17.0250   12.0340   10.8620 C.3       1 E94401      0.0000 
     20 C13        15.9690   11.0360   10.4110 C.3       1 E94401      0.0000 
     21 C12        15.3150   10.3390   11.5890 C.3       1 E94401      0.0000 
     22 S          17.3180    6.0200   14.6690 S.3       1 E94401      0.0000 
     23 C8         17.7090    5.0350   16.0420 C.2       1 E94401      0.0000 
     24 C19        19.0990    4.5560   15.9820 C.ar      1 E94401      0.0000 
     25 C22        19.4340    3.3330   16.5430 C.ar      1 E94401      0.0000 
     26 C21        20.7390    2.9300   16.3160 C.ar      1 E94401      0.0000 
     27 N5         21.6460    3.6470   15.6290 N.ar      1 E94401      0.0000 
     28 C20        21.2150    4.8180   15.1430 C.ar      1 E94401      0.0000 
     29 N4         19.9730    5.3040   15.2930 N.ar      1 E94401      0.0000 
     30 N6         22.0870    5.5820   14.4350 N.pl3     1 E94401      0.0000 
     31 C23        21.9590    6.7260   13.6170 C.ar      1 E94401      0.0000 
     32 C28        20.7640    7.0690   12.9920 C.ar      1 E94401      0.0000 
     33 C27        20.6230    8.3210   12.4020 C.ar      1 E94401      0.0000 
     34 C26        21.6570    9.2460   12.4520 C.ar      1 E94401      0.0000 
     35 C25        22.8450    8.9080   13.0850 C.ar      1 E94401      0.0000 
     36 O          23.8370    9.8350   13.2700 O.3       1 E94401      0.0000 
     37 C24        23.0050    7.6440   13.6380 C.ar      1 E94401      0.0000 
     38 H          14.8395    3.1407   17.9504 H         1 E94401      0.0000 
     39 H          18.4357    5.1097   18.8044 H         1 E94401      0.0000 
     40 H          18.5102    4.0302   20.9636 H         1 E94401      0.0000 
     41 H          16.7182    2.5550   21.6393 H         1 E94401      0.0000 
     42 H          13.6886    6.6499   14.4906 H         1 E94401      0.0000 
     43 H          14.2113    7.8171   12.5336 H         1 E94401      0.0000 
     44 H          15.8181    7.0701   12.5373 H         1 E94401      0.0000 
     45 H          16.4563    8.7303   14.3839 H         1 E94401      0.0000 
     46 H          14.9161    9.5468   14.0664 H         1 E94401      0.0000 
     47 H          16.8913    8.9537   11.8459 H         1 E94401      0.0000 
     48 H          18.0705   10.2105   13.5923 H         1 E94401      0.0000 
     49 H          16.8067   11.4522   13.5607 H         1 E94401      0.0000 
     50 H          18.6094   10.6430   11.2475 H         1 E94401      0.0000 
     51 H          18.7051   12.1414   12.1885 H         1 E94401      0.0000 
     52 H          17.5512   12.4205    9.9882 H         1 E94401      0.0000 
     53 H          16.5386   12.8664   11.3723 H         1 E94401      0.0000 
     54 H          16.4355   10.2887    9.7614 H         1 E94401      0.0000 
     55 H          15.2038   11.5608    9.8303 H         1 E94401      0.0000 
     56 H          14.7475   11.0747   12.1686 H         1 E94401      0.0000 
     57 H          14.6116    9.5882   11.2137 H         1 E94401      0.0000 
     58 H          18.7877    2.7894   17.0665 H         1 E94401      0.0000 
     59 H          21.0288    1.9854   16.7195 H         1 E94401      0.0000 
     60 H          23.1647    5.2367   14.5063 H         1 E94401      0.0000 
     61 H          19.9862    6.3978   12.9663 H         1 E94401      0.0000 
     62 H          19.7408    8.5632   11.9229 H         1 E94401      0.0000 
     63 H          21.5438   10.1711   12.0248 H         1 E94401      0.0000 
     64 H          23.9058    7.3823   14.0680 H         1 E94401      0.0000 
     65 H          24.6664    9.2986   13.4264 H         1 E94401      0.0000 
@<TRIPOS>BOND
     1    2    1 3    
     2    3    2 1    
     3    4    3 1    
     4   12    3 2    
     5    5    4 1    
     6   23    4 2    
     7    6    5 ar   
     8    7    5 ar   
     9   10    6 ar   
    10   38    6 1    
    11    8    7 ar   
    12   39    7 1    
    13    9    8 ar   
    14   40    8 1    
    15   10    9 ar   
    16   41    9 1    
    17   11   10 1    
    18   13   12 1    
    19   22   12 1    
    20   14   13 1    
    21   42   13 1    
    22   15   14 1    
    23   43   14 1    
    24   44   14 1    
    25   16   15 1    
    26   45   15 1    
    27   46   15 1    
    28   17   16 1    
    29   21   16 1    
    30   47   16 1    
    31   18   17 1    
    32   48   17 1    
    33   49   17 1    
    34   19   18 1    
    35   50   18 1    
    36   51   18 1    
    37   20   19 1    
    38   52   19 1    
    39   53   19 1    
    40   21   20 1    
    41   54   20 1    
    42   55   20 1    
    43   56   21 1    
    44   57   21 1    
    45   23   22 1    
    46   24   23 1    
    47   25   24 ar   
    48   29   24 ar   
    49   26   25 ar   
    50   58   25 1    
    51   27   26 ar   
    52   59   26 1    
    53   28   27 ar   
    54   29   28 ar   
    55   30   28 1    
    56   31   30 1    
    57   60   30 1    
    58   32   31 ar   
    59   37   31 ar   
    60   33   32 ar   
    61   61   32 1    
    62   34   33 ar   
    63   62   33 1    
    64   35   34 ar   
    65   63   34 1    
    66   36   35 1    
    67   37   35 ar   
    68   65   36 1    
    69   64   37 1    
@<TRIPOS>SUBSTRUCTURE
     1 E94401      1 GROUP   
@<TRIPOS>SET

