#    Name: 2gc8_885_2_INTS_M
#    Modification time : Tue Mar 25 13:58:32 2014

@<TRIPOS>MOLECULE
2gc8_885_2_INTS_M
   28     0     6     0     0
SMALL
NO_CHARGES


@<TRIPOS>ATOM
      1 CA         -5.6365   44.4450  110.8720 C.3       2 GLC5        0.0000 
      2 CA         -6.6740   42.8760  111.9240 C.3       6 GLL5        0.0000 
      3 CA         -4.5990   46.0140  109.8200 C.3       4 GLP5        0.0000 
      4 CA         -5.2535   41.9525  111.5795 C.3       2 GLC5        0.0000 
      5 CA         -3.8330   41.0290  111.2350 C.3       4 GLP5        0.0000 
      6 CA         -7.9520   41.9880  110.9925 C.3       2 GLC5        0.0000 
      7 CA         -9.2300   41.1000  110.0610 C.3       4 GLP5        0.0000 
      8 CA         -3.7240   41.9985  114.6495 C.3       2 GLC5        0.0000 
      9 CA         -5.4570   42.1050  114.7900 C.3       6 GLL5        0.0000 
     10 CA         -1.9910   41.8920  114.5090 C.3       4 GLP5        0.0000 
     11 CA         -6.0145   41.0995  116.0290 C.3       2 GLC5        0.0000 
     12 CA         -6.5720   40.0940  117.2680 C.3       4 GLP5        0.0000 
     13 CA         -4.6450   41.5670  113.0125 C.3       2 GLC5        0.0000 
     14 N         -10.0975   48.2470  115.1225 N.am      1 SEC2        0.0000 
     15 N         -10.1410   47.0920  114.1850 N.am      5 SEL2        0.0000 
     16 N         -10.0540   49.4020  116.0600 N.am      3 SEP2        0.0000 
     17 N         -14.5590   48.4465  117.0005 N.am      1 SEC2        0.0000 
     18 N         -13.1680   48.0620  116.7420 N.am      5 SEL2        0.0000 
     19 N         -15.9500   48.8310  117.2590 N.am      3 SEP2        0.0000 
     20 N         -12.4235   48.9180  117.5225 N.am      1 SEC2        0.0000 
     21 N         -11.6790   49.7740  118.3030 N.am      3 SEP2        0.0000 
     22 CA         -7.0295   45.1493  112.1898 C.3       2 GLC5        0.0000 
     23 CA         -7.3420   43.3650  113.1830 C.3       6 GLL5        0.0000 
     24 CA         -7.0510   47.1780  111.8260 C.3       4 GLP5        0.0000 
     25 CA         -7.9418   45.8065  112.7242 C.3       2 GLC5        0.0000 
     26 CA         -8.4890   44.1830  113.0520 C.3       6 GLL5        0.0000 
     27 CA         -6.8910   41.7060  116.1753 C.3       2 GLC5        0.0000 
     28 CA         -6.8650   43.0670  114.5090 C.3       6 GLL5        0.0000 
@<TRIPOS>BOND
@<TRIPOS>SUBSTRUCTURE
     1 SEC2       14 GROUP        1 X    SEC  0     ROOT SEC X 2
     2 GLC5        1 GROUP        1 X    GLC  0     **** GLC X 6
     3 SEP2       16 GROUP        1 Y    SEP  0     ROOT SEP Y 9
     4 GLP5        3 GROUP        1 Y    GLP  0     **** GLP Y 13
     5 SEL2       15 GROUP        1 Z    SEL  0     ROOT SEL Z 16
     6 GLL5        2 GROUP        1 Z    GLL  0     **** GLL Z 20
@<TRIPOS>SET

