#    Name: 2gc8_885_2_ligand
#    Modification time : Tue Mar 25 13:58:33 2014

@<TRIPOS>MOLECULE
2gc8_885_2_ligand
   34    35     1     0     0
SMALL
NO_CHARGES


@<TRIPOS>ATOM
      1 C1         -6.6740   42.8760  111.9240 C.3       1 885579      0.0000 
      2 C2         -7.3420   43.3650  113.1830 C.ar      1 885579      0.0000 
      3 C3         -8.4890   44.1830  113.0520 C.ar      1 885579      0.0000 
      4 C4         -9.1760   44.6870  114.1930 C.ar      1 885579      0.0000 
      5 C5         -8.7240   44.3860  115.5250 C.ar      1 885579      0.0000 
      6 C6         -7.5550   43.5690  115.6560 C.ar      1 885579      0.0000 
      7 C7         -6.8650   43.0670  114.5090 C.ar      1 885579      0.0000 
      8 CL         -5.4570   42.1050  114.7900 Cl        1 885579      0.0000 
      9 N1         -9.3540   44.8460  116.6780 N.pl3     1 885579      0.0000 
     10 S1        -10.5830   45.7400  113.8730 S.o2      1 885579      0.0000 
     11 O1        -10.1410   47.0920  114.1850 O.2       1 885579      0.0000 
     12 O2        -11.0880   45.4440  112.5400 O.2       1 885579      0.0000 
     13 N2        -11.7630   45.2610  115.0370 N.pl3     1 885579      0.0000 
     14 C8        -12.3910   43.9030  114.8940 C.3       1 885579      0.0000 
     15 C9        -13.7900   44.1960  114.3840 C.3       1 885579      0.0000 
     16 C10       -14.1720   45.4360  115.1750 C.3       1 885579      0.0000 
     17 C11       -12.8790   46.2530  115.2550 C.3       1 885579      0.0000 
     18 C12       -12.5760   46.9560  116.5990 C.2       1 885579      0.0000 
     19 O3        -11.7780   46.3770  117.3950 O.co2     1 885579      0.0000 
     20 O4        -13.1680   48.0620  116.7420 O.co2     1 885579      0.0000 
     21 H          -8.8374   44.4211  112.1136 H         1 885579      0.0000 
     22 H          -7.2066   43.3400  116.5923 H         1 885579      0.0000 
     23 H         -10.1592   45.4226  116.5393 H         1 885579      0.0000 
     24 H          -8.9471   44.5602  117.5456 H         1 885579      0.0000 
     25 H         -12.4486   43.4212  115.8423 H         1 885579      0.0000 
     26 H         -11.8604   43.3250  114.1736 H         1 885579      0.0000 
     27 H         -14.4389   43.3983  114.6285 H         1 885579      0.0000 
     28 H         -13.7591   44.4221  113.3519 H         1 885579      0.0000 
     29 H         -14.4811   45.1622  116.1550 H         1 885579      0.0000 
     30 H         -14.9113   45.9905  114.6488 H         1 885579      0.0000 
     31 H         -12.8441   46.9633  114.4590 H         1 885579      0.0000 
     32 H          -6.3604   43.6337  111.3517 H         1 885579      0.0000 
     33 H          -5.8747   42.3092  112.1237 H         1 885579      0.0000 
     34 H          -7.2930   42.3236  111.3657 H         1 885579      0.0000 
@<TRIPOS>BOND
     1    2    1 1    
     2   32    1 1    
     3   33    1 1    
     4   34    1 1    
     5    3    2 ar   
     6    7    2 ar   
     7    4    3 ar   
     8   21    3 1    
     9    5    4 ar   
    10   10    4 1    
    11    6    5 ar   
    12    9    5 1    
    13    7    6 ar   
    14   22    6 1    
    15    8    7 1    
    16   23    9 1    
    17   24    9 1    
    18   11   10 2    
    19   12   10 2    
    20   13   10 1    
    21   14   13 1    
    22   17   13 1    
    23   15   14 1    
    24   25   14 1    
    25   26   14 1    
    26   16   15 1    
    27   27   15 1    
    28   28   15 1    
    29   17   16 1    
    30   29   16 1    
    31   30   16 1    
    32   18   17 1    
    33   31   17 1    
    34   19   18 ar   
    35   20   18 ar   
@<TRIPOS>SUBSTRUCTURE
     1 885579      1 GROUP   
@<TRIPOS>SET

