#    Name: 3wd2_A1L_1_INTS_M
#    Modification time : Tue Mar 25 02:30:20 2014

@<TRIPOS>MOLECULE
3wd2_A1L_1_INTS_M
   68     0    12     0     0
SMALL
NO_CHARGES


@<TRIPOS>ATOM
      1 CA        -20.6380   -8.4505  -32.1190 C.3       4 GLC5        0.0000 
      2 CA        -20.5830   -7.0540  -31.3050 C.3      12 GLL5        0.0000 
      3 CA        -20.6930   -9.8470  -32.9330 C.3       8 GLP5        0.0000 
      4 CA        -22.5710   -6.7455  -31.9670 C.3       4 GLC5        0.0000 
      5 CA        -24.5590   -6.4370  -32.6290 C.3       8 GLP5        0.0000 
      6 CA        -19.9640   -6.8230  -29.2765 C.3       4 GLC5        0.0000 
      7 CA        -19.3450   -6.5920  -27.2480 C.3       8 GLP5        0.0000 
      8 CA        -20.5990   -6.0935  -32.9660 C.3       4 GLC5        0.0000 
      9 CA        -20.6150   -5.1330  -34.6270 C.3       8 GLP5        0.0000 
     10 O         -22.2400   -6.7650  -29.8805 O.2       1 ALC1        0.0000 
     11 O         -21.0110   -6.1550  -30.2030 O.2       9 ALL1        0.0000 
     12 O         -23.4690   -7.3750  -29.5580 O.2       5 ALP1        0.0000 
     13 O         -21.8190   -5.8405  -28.7445 O.2       1 ALC1        0.0000 
     14 O         -22.6270   -5.5260  -27.2860 O.2       5 ALP1        0.0000 
     15 N         -18.0790   -5.2565  -30.7065 N.am      2 SEC2        0.0000 
     16 N         -19.3410   -4.6340  -30.5960 N.am     10 SEL2        0.0000 
     17 N         -16.8170   -5.8790  -30.8170 N.am      6 SEP2        0.0000 
     18 O         -21.7140   -4.9110  -28.0990 O.2       1 ALC1        0.0000 
     19 O         -20.8010   -4.2960  -28.9120 O.2       9 ALL1        0.0000 
     20 OD1       -21.7890   -4.0765  -27.3365 O.co2     3 ASC3        0.0000 
     21 OD1       -20.3210   -3.1210  -28.4650 O.co2    11 ASL3        0.0000 
     22 OD1       -22.8820   -3.8250  -25.9110 O.co2     7 ASP3        0.0000 
     23 OD1       -22.6270   -5.5260  -27.2860 O.co2     7 ASP3        0.0000 
     24 O         -18.4950   -1.2840  -28.6025 O.2       1 ALC1        0.0000 
     25 O         -19.2580   -2.4960  -29.0320 O.2       9 ALL1        0.0000 
     26 O         -17.7320   -0.0720  -28.1730 O.2       5 ALP1        0.0000 
     27 O         -21.9165   -3.2260  -26.6490 O.2       1 ALC1        0.0000 
     28 O         -20.9510   -2.6270  -27.3870 O.2       9 ALL1        0.0000 
     29 O         -22.8820   -3.8250  -25.9110 O.2       5 ALP1        0.0000 
     30 O         -21.7890   -4.0765  -27.3365 O.2       1 ALC1        0.0000 
     31 CA        -22.3030   -1.4260  -25.3765 C.3       4 GLC5        0.0000 
     32 CA        -20.5680   -1.4040  -26.6610 C.3      12 GLL5        0.0000 
     33 CA        -24.0380   -1.4480  -24.0920 C.3       8 GLP5        0.0000 
     34 CA        -22.9330   -0.8780  -27.4245 C.3       4 GLC5        0.0000 
     35 CA        -20.7970   -0.2260  -27.5600 C.3      12 GLL5        0.0000 
     36 CA        -25.0690   -1.5300  -27.2890 C.3       8 GLP5        0.0000 
     37 CA        -17.6755    0.7890  -31.6795 C.3       4 GLC5        0.0000 
     38 CA        -19.7510    1.2290  -31.2310 C.3      12 GLL5        0.0000 
     39 CA        -15.6000    0.3490  -32.1280 C.3       8 GLP5        0.0000 
     40 N         -19.3415   -0.2505  -34.7045 N.am      2 SEC2        0.0000 
     41 N         -18.9220    1.1750  -34.4680 N.am     10 SEL2        0.0000 
     42 N         -19.7610   -1.6760  -34.9410 N.am      6 SEP2        0.0000 
     43 N         -19.2340    3.5300  -28.2200 N.am      2 SEC2        0.0000 
     44 N         -20.4700    3.7920  -27.7460 N.am     10 SEL2        0.0000 
     45 N         -17.9980    3.2680  -28.6940 N.am      6 SEP2        0.0000 
     46 CA        -20.3505    5.2310  -25.6615 C.3       4 GLC5        0.0000 
     47 CA        -22.3730    5.3460  -26.4530 C.3      12 GLL5        0.0000 
     48 CA        -18.3280    5.1160  -24.8700 C.3       8 GLP5        0.0000 
     49 CA        -20.0425    9.8355  -29.0065 C.3       4 GLC5        0.0000 
     50 CA        -20.4460    8.1030  -28.3490 C.3      12 GLL5        0.0000 
     51 CA        -19.6390   11.5680  -29.6640 C.3       8 GLP5        0.0000 
     52 CA        -19.4325    9.0565  -30.5365 C.3       4 GLC5        0.0000 
     53 CA        -20.6150    7.7320  -29.6870 C.3      12 GLL5        0.0000 
     54 CA        -18.2500   10.3810  -31.3860 C.3       8 GLP5        0.0000 
     55 CA        -24.8910    2.0340  -26.4985 C.3       4 GLC5        0.0000 
     56 CA        -23.8980    3.3130  -26.6770 C.3      12 GLL5        0.0000 
     57 CA        -25.8840    0.7550  -26.3200 C.3       8 GLP5        0.0000 
     58 CA        -27.0715    5.8480  -28.0155 C.3       4 GLC5        0.0000 
     59 CA        -27.2620    3.6710  -28.5290 C.3      12 GLL5        0.0000 
     60 CA        -26.8810    8.0250  -27.5020 C.3       8 GLP5        0.0000 
     61 CA        -23.4927    0.4612  -26.8317 C.3       4 GLC5        0.0000 
     62 CA        -21.8650    1.8750  -28.0350 C.3      12 GLL5        0.0000 
     63 CA        -25.2410   -0.4520  -26.1910 C.3       8 GLP5        0.0000 
     64 CA        -19.4515    8.6133  -26.9340 C.3       4 GLC5        0.0000 
     65 CA        -21.0120    7.3600  -27.2970 C.3      12 GLL5        0.0000 
     66 CA        -18.1740    9.4950  -26.0450 C.3       8 GLP5        0.0000 
     67 CA        -19.7900    6.6265  -31.4858 C.3       4 GLC5        0.0000 
     68 CA        -18.5950    6.0910  -33.1330 C.3       8 GLP5        0.0000 
@<TRIPOS>BOND
@<TRIPOS>SUBSTRUCTURE
     1 ALC1       10 GROUP        1 X    ALC  0     ROOT ALC X 1
     2 SEC2       15 GROUP        1 X    SEC  0     **** SEC X 2
     3 ASC3       20 GROUP        1 X    ASC  0     **** ASC X 3
     4 GLC5        1 GROUP        1 X    GLC  0     **** GLC X 6
     5 ALP1       12 GROUP        1 Y    ALP  0     ROOT ALP Y 8
     6 SEP2       17 GROUP        1 Y    SEP  0     **** SEP Y 9
     7 ASP3       22 GROUP        1 Y    ASP  0     **** ASP Y 10
     8 GLP5        3 GROUP        1 Y    GLP  0     **** GLP Y 13
     9 ALL1       11 GROUP        1 Z    ALL  0     ROOT ALL Z 15
    10 SEL2       16 GROUP        1 Z    SEL  0     **** SEL Z 16
    11 ASL3       21 GROUP        1 Z    ASL  0     **** ASL Z 17
    12 GLL5        2 GROUP        1 Z    GLL  0     **** GLL Z 20
@<TRIPOS>SET

