#    Name: 3wd2_A1L_1_ligand
#    Modification time : Tue Mar 25 02:30:21 2014

@<TRIPOS>MOLECULE
3wd2_A1L_1_ligand
   69    70     1     0     0
SMALL
NO_CHARGES


@<TRIPOS>ATOM
      1 C9        -20.5830   -7.0540  -31.3050 C.3       1 A1L501      0.0000 
      2 N6        -21.0110   -6.1550  -30.2030 N.am      1 A1L501      0.0000 
      3 C8        -20.3360   -5.0190  -29.9600 C.2       1 A1L501      0.0000 
      4 O3        -19.3410   -4.6340  -30.5960 O.2       1 A1L501      0.0000 
      5 N4        -20.8010   -4.2960  -28.9120 N.am      1 A1L501      0.0000 
      6 C7        -20.3210   -3.1210  -28.4650 C.cat     1 A1L501      0.0000 
      7 N5        -19.2580   -2.4960  -29.0320 N.pl3     1 A1L501      0.0000 
      8 N3        -20.9510   -2.6270  -27.3870 N.pl3     1 A1L501      0.0000 
      9 C6        -20.5680   -1.4040  -26.6610 C.3       1 A1L501      0.0000 
     10 C5        -20.7970   -0.2260  -27.5600 C.3       1 A1L501      0.0000 
     11 C4        -21.6240    0.8740  -26.9100 C.3       1 A1L501      0.0000 
     12 C2        -21.8650    1.8750  -28.0350 C.3       1 A1L501      0.0000 
     13 N2        -20.9330    1.4300  -29.1110 N.am      1 A1L501      0.0000 
     14 C3        -20.7810    1.9630  -30.3190 C.2       1 A1L501      0.0000 
     15 O1        -21.3870    2.9630  -30.6930 O.2       1 A1L501      0.0000 
     16 C10       -19.7510    1.2290  -31.2310 C.3       1 A1L501      0.0000 
     17 N7        -19.4750    2.0530  -32.4260 N.pl3     1 A1L501      0.0000 
     18 N8        -19.2490    1.5140  -33.4150 N.1       1 A1L501      0.0000 
     19 N9        -18.9220    1.1750  -34.4680 N.1       1 A1L501      0.0000 
     20 C1        -21.5790    3.2950  -27.5460 C.2       1 A1L501      0.0000 
     21 O2        -20.4700    3.7920  -27.7460 O.2       1 A1L501      0.0000 
     22 N1        -22.5810    3.9460  -26.9280 N.am      1 A1L501      0.0000 
     23 C12       -22.3730    5.3460  -26.4530 C.3       1 A1L501      0.0000 
     24 C13       -21.7520    6.2110  -27.5890 C.ar      1 A1L501      0.0000 
     25 C20       -21.0120    7.3600  -27.2970 C.ar      1 A1L501      0.0000 
     26 C21       -20.4460    8.1030  -28.3490 C.ar      1 A1L501      0.0000 
     27 C22       -20.6150    7.7320  -29.6870 C.ar      1 A1L501      0.0000 
     28 C23       -21.3550    6.5920  -29.9900 C.ar      1 A1L501      0.0000 
     29 C24       -21.9120    5.8470  -28.9380 C.ar      1 A1L501      0.0000 
     30 C11       -23.8980    3.3130  -26.6770 C.3       1 A1L501      0.0000 
     31 C14       -24.9340    3.4760  -27.8270 C.ar      1 A1L501      0.0000 
     32 C15       -24.5470    3.5420  -29.1720 C.ar      1 A1L501      0.0000 
     33 C16       -25.5070    3.6770  -30.1840 C.ar      1 A1L501      0.0000 
     34 C17       -26.8630    3.7410  -29.8630 C.ar      1 A1L501      0.0000 
     35 C18       -27.2620    3.6710  -28.5290 C.ar      1 A1L501      0.0000 
     36 C19       -26.3010    3.5370  -27.5200 C.ar      1 A1L501      0.0000 
     37 H         -21.8272   -6.4563  -29.6651 H         1 A1L501      0.0000 
     38 H         -21.6534   -4.7133  -28.3775 H         1 A1L501      0.0000 
     39 H         -18.8346   -2.9642  -29.8076 H         1 A1L501      0.0000 
     40 H         -18.9922   -1.6225  -28.6241 H         1 A1L501      0.0000 
     41 H         -21.8014   -3.1222  -26.9856 H         1 A1L501      0.0000 
     42 H         -19.5172   -1.4434  -26.3804 H         1 A1L501      0.0000 
     43 H         -21.1709   -1.2927  -25.7617 H         1 A1L501      0.0000 
     44 H         -21.3092   -0.5567  -28.4791 H         1 A1L501      0.0000 
     45 H         -19.8264    0.1974  -27.8687 H         1 A1L501      0.0000 
     46 H         -21.0653    1.3349  -26.1323 H         1 A1L501      0.0000 
     47 H         -22.5522    0.4789  -26.5754 H         1 A1L501      0.0000 
     48 H         -22.8699    1.7810  -28.3571 H         1 A1L501      0.0000 
     49 H         -20.3432    0.5771  -28.8179 H         1 A1L501      0.0000 
     50 H         -20.1768    0.2693  -31.5077 H         1 A1L501      0.0000 
     51 H         -18.8480    1.0682  -30.6499 H         1 A1L501      0.0000 
     52 H         -19.5213    3.0834  -32.2155 H         1 A1L501      0.0000 
     53 H         -21.6938    5.3657  -25.6048 H         1 A1L501      0.0000 
     54 H         -23.3188    5.7971  -26.1646 H         1 A1L501      0.0000 
     55 H         -20.8810    7.6608  -26.3309 H         1 A1L501      0.0000 
     56 H         -19.8891    8.9479  -28.1229 H         1 A1L501      0.0000 
     57 H         -20.1987    8.2935  -30.4322 H         1 A1L501      0.0000 
     58 H         -21.4928    6.2995  -30.9547 H         1 A1L501      0.0000 
     59 H         -22.4636    4.9941  -29.1640 H         1 A1L501      0.0000 
     60 H         -24.3558    3.7291  -25.7567 H         1 A1L501      0.0000 
     61 H         -23.7740    2.2264  -26.4939 H         1 A1L501      0.0000 
     62 H         -23.5497    3.4909  -29.4189 H         1 A1L501      0.0000 
     63 H         -25.2079    3.7288  -31.1658 H         1 A1L501      0.0000 
     64 H         -27.5631    3.8391  -30.6054 H         1 A1L501      0.0000 
     65 H         -28.2566    3.7173  -28.2848 H         1 A1L501      0.0000 
     66 H         -26.6021    3.4821  -26.5343 H         1 A1L501      0.0000 
     67 H         -19.6468   -7.3807  -31.1754 H         1 A1L501      0.0000 
     68 H         -21.1684   -7.8618  -31.3739 H         1 A1L501      0.0000 
     69 H         -20.6127   -6.5939  -32.1924 H         1 A1L501      0.0000 
@<TRIPOS>BOND
     1    2    1 1    
     2   67    1 1    
     3   68    1 1    
     4   69    1 1    
     5    3    2 am   
     6   37    2 1    
     7    4    3 2    
     8    5    3 am   
     9    6    5 ar   
    10   38    5 1    
    11    7    6 ar   
    12    8    6 ar   
    13   39    7 1    
    14   40    7 1    
    15    9    8 1    
    16   41    8 1    
    17   10    9 1    
    18   42    9 1    
    19   43    9 1    
    20   11   10 1    
    21   44   10 1    
    22   45   10 1    
    23   12   11 1    
    24   46   11 1    
    25   47   11 1    
    26   13   12 1    
    27   20   12 1    
    28   48   12 1    
    29   14   13 am   
    30   49   13 1    
    31   15   14 2    
    32   16   14 1    
    33   17   16 1    
    34   50   16 1    
    35   51   16 1    
    36   18   17 1    
    37   52   17 1    
    38   19   18 3    
    39   21   20 2    
    40   22   20 am   
    41   23   22 1    
    42   30   22 1    
    43   24   23 1    
    44   53   23 1    
    45   54   23 1    
    46   25   24 ar   
    47   29   24 ar   
    48   26   25 ar   
    49   55   25 1    
    50   27   26 ar   
    51   56   26 1    
    52   28   27 ar   
    53   57   27 1    
    54   29   28 ar   
    55   58   28 1    
    56   59   29 1    
    57   31   30 1    
    58   60   30 1    
    59   61   30 1    
    60   32   31 ar   
    61   36   31 ar   
    62   33   32 ar   
    63   62   32 1    
    64   34   33 ar   
    65   63   33 1    
    66   35   34 ar   
    67   64   34 1    
    68   36   35 ar   
    69   65   35 1    
    70   66   36 1    
@<TRIPOS>SUBSTRUCTURE
     1 A1L501      1 GROUP   
@<TRIPOS>SET

