#    Name: 3ij8_B0D_1_INTS_M
#    Modification time : Tue Mar 25 16:37:47 2014

@<TRIPOS>MOLECULE
3ij8_B0D_1_INTS_M
   29     0     6     0     0
SMALL
NO_CHARGES


@<TRIPOS>ATOM
      1 CA          7.5865   13.1465   40.8075 C.3       2 GLC5        0.0000 
      2 CA          6.4590   14.9700   40.9740 C.3       6 GLL5        0.0000 
      3 CA          8.7140   11.3230   40.6410 C.3       4 GLP5        0.0000 
      4 CA          8.4685   13.4380   42.4290 C.3       2 GLC5        0.0000 
      5 CA          6.7460   14.5540   42.4510 C.3       6 GLL5        0.0000 
      6 CA         10.1910   12.3220   42.4070 C.3       4 GLP5        0.0000 
      7 O           6.1240   12.7815   43.3675 O.2       1 ALC1        0.0000 
      8 O           5.6250   13.8800   43.0060 O.2       5 ALL1        0.0000 
      9 O           6.6230   11.6830   43.7290 O.2       3 ALP1        0.0000 
     10 O           7.9580   16.5035   45.6590 O.2       1 ALC1        0.0000 
     11 O           7.3960   15.4200   44.6710 O.2       5 ALL1        0.0000 
     12 O           8.5200   17.5870   46.6470 O.2       3 ALP1        0.0000 
     13 O           8.0885   18.2650   44.3475 O.2       1 ALC1        0.0000 
     14 O           8.7150   17.6410   43.4540 O.2       5 ALL1        0.0000 
     15 O           7.4620   18.8890   45.2410 O.2       3 ALP1        0.0000 
     16 CA          6.1990   19.7250   40.0920 C.3       2 GLC5        0.0000 
     17 CA          6.9810   18.0340   41.1500 C.3       6 GLL5        0.0000 
     18 CA          5.4170   21.4160   39.0340 C.3       4 GLP5        0.0000 
     19 O           7.2245   19.3300   38.9325 O.2       1 ALC1        0.0000 
     20 O           6.7410   18.4030   39.7760 O.2       5 ALL1        0.0000 
     21 O           7.7080   20.2570   38.0890 O.2       3 ALP1        0.0000 
     22 CA          5.0590   16.8122   41.9912 C.3       2 GLC5        0.0000 
     23 CA          5.3290   15.7690   40.9310 C.3       6 GLL5        0.0000 
     24 CA          4.2240   18.2550   43.0300 C.3       4 GLP5        0.0000 
     25 CA          7.1488   13.3993   43.8792 C.3       2 GLC5        0.0000 
     26 CA          7.1130   15.8010   43.3040 C.3       6 GLL5        0.0000 
     27 CA          7.3680   11.6210   44.8810 C.3       4 GLP5        0.0000 
     28 CA          5.9752   17.2000   43.0113 C.3       2 GLC5        0.0000 
     29 CA          5.8720   17.8615   42.1043 C.3       2 GLC5        0.0000 
@<TRIPOS>BOND
@<TRIPOS>SUBSTRUCTURE
     1 ALC1        7 GROUP        1 X    ALC  0     ROOT ALC X 1
     2 GLC5        1 GROUP        1 X    GLC  0     **** GLC X 6
     3 ALP1        9 GROUP        1 Y    ALP  0     ROOT ALP Y 8
     4 GLP5        3 GROUP        1 Y    GLP  0     **** GLP Y 13
     5 ALL1        8 GROUP        1 Z    ALL  0     ROOT ALL Z 15
     6 GLL5        2 GROUP        1 Z    GLL  0     **** GLL Z 20
@<TRIPOS>SET

