#    Name: 3ij8_B0D_1_ligand
#    Modification time : Tue Mar 25 16:37:48 2014

@<TRIPOS>MOLECULE
3ij8_B0D_1_ligand
   23    23     1     0     0
SMALL
NO_CHARGES


@<TRIPOS>ATOM
      1 F1          5.3290   15.7690   40.9310 F         1 B0D501      0.0000 
      2 F2          9.1640   17.4650   40.6340 F         1 B0D501      0.0000 
      3 CX1         6.4590   14.9700   40.9740 C.3       1 B0D501      0.0000 
      4 CX2         6.7460   14.5540   42.4510 C.3       1 B0D501      0.0000 
      5 OX2         5.6250   13.8800   43.0060 O.3       1 B0D501      0.0000 
      6 CX3         7.1130   15.8010   43.3040 C.3       1 B0D501      0.0000 
      7 OX3         7.3960   15.4200   44.6710 O.3       1 B0D501      0.0000 
      8 CX4         8.3400   16.4890   42.6810 C.3       1 B0D501      0.0000 
      9 OX4         8.7150   17.6410   43.4540 O.3       1 B0D501      0.0000 
     10 CX5         8.0590   16.9020   41.2070 C.3       1 B0D501      0.0000 
     11 OX5         7.6270   15.7060   40.4460 O.3       1 B0D501      0.0000 
     12 CX6         6.9810   18.0340   41.1500 C.3       1 B0D501      0.0000 
     13 OX6         6.7410   18.4030   39.7760 O.3       1 B0D501      0.0000 
     14 H           6.3363   14.0515   40.4165 H         1 B0D501      0.0000 
     15 H           7.6250   13.9101   42.4322 H         1 B0D501      0.0000 
     16 H           6.2843   16.4876   43.2507 H         1 B0D501      0.0000 
     17 H           9.1507   15.7620   42.6595 H         1 B0D501      0.0000 
     18 H           7.3616   18.8697   41.7371 H         1 B0D501      0.0000 
     19 H           6.0833   17.6471   41.6320 H         1 B0D501      0.0000 
     20 H           6.0122   13.2250   43.6549 H         1 B0D501      0.0000 
     21 H           7.8466   16.2168   45.0737 H         1 B0D501      0.0000 
     22 H           7.9192   17.8387   44.0264 H         1 B0D501      0.0000 
     23 H           7.3813   19.1490   39.5929 H         1 B0D501      0.0000 
@<TRIPOS>BOND
     1    3    1 1    
     2   10    2 1    
     3    4    3 1    
     4   11    3 1    
     5   14    3 1    
     6    5    4 1    
     7    6    4 1    
     8   15    4 1    
     9   20    5 1    
    10    7    6 1    
    11    8    6 1    
    12   16    6 1    
    13   21    7 1    
    14    9    8 1    
    15   10    8 1    
    16   17    8 1    
    17   22    9 1    
    18   11   10 1    
    19   12   10 1    
    20   13   12 1    
    21   18   12 1    
    22   19   12 1    
    23   23   13 1    
@<TRIPOS>SUBSTRUCTURE
     1 B0D501      1 GROUP   
@<TRIPOS>SET

