#    Name: 4e26_734_2_INTS_M
#    Modification time : Tue Mar 25 10:30:57 2014

@<TRIPOS>MOLECULE
4e26_734_2_INTS_M
   37     0     3     0     0
SMALL
NO_CHARGES


@<TRIPOS>ATOM
      1 CA         26.1785  -36.5840   -8.5910 C.3       1 GLC5        0.0000 
      2 CA         26.2730  -38.0540   -9.8220 C.3       3 GLL5        0.0000 
      3 CA         26.0840  -35.1140   -7.3600 C.3       2 GLP5        0.0000 
      4 CA         30.3990  -40.0765   -6.4040 C.3       1 GLC5        0.0000 
      5 CA         31.3630  -40.7540   -7.9180 C.3       3 GLL5        0.0000 
      6 CA         29.4350  -39.3990   -4.8900 C.3       2 GLP5        0.0000 
      7 CA         33.0415  -36.5400   -5.6105 C.3       1 GLC5        0.0000 
      8 CA         32.8690  -38.7070   -5.2120 C.3       3 GLL5        0.0000 
      9 CA         33.2140  -34.3730   -6.0090 C.3       2 GLP5        0.0000 
     10 CA         33.5277  -37.7535   -4.2935 C.3       1 GLC5        0.0000 
     11 CA         34.4130  -37.1930   -6.2320 C.3       3 GLL5        0.0000 
     12 CA         32.9500  -38.0690   -2.9270 C.3       2 GLP5        0.0000 
     13 CA         35.6462  -37.1110   -4.9605 C.3       1 GLC5        0.0000 
     14 CA         33.7980  -37.6830   -5.0880 C.3       3 GLL5        0.0000 
     15 CA         37.1870  -36.7840   -4.2610 C.3       2 GLP5        0.0000 
     16 CA         30.5003  -41.0912  -10.1103 C.3       1 GLC5        0.0000 
     17 CA         29.9120  -40.6190   -8.1790 C.3       3 GLL5        0.0000 
     18 CA         31.3350  -42.1410  -11.7510 C.3       2 GLP5        0.0000 
     19 CA         26.9898  -43.2070   -9.6152 C.3       1 GLC5        0.0000 
     20 CA         27.6860  -41.5290   -8.0860 C.3       3 GLL5        0.0000 
     21 CA         26.8530  -44.2180  -11.3630 C.3       2 GLP5        0.0000 
     22 CA         31.4485  -41.8080   -9.8633 C.3       1 GLC5        0.0000 
     23 CA         31.7610  -42.1960   -8.0330 C.3       3 GLL5        0.0000 
     24 CA         25.0933  -40.5948   -9.9957 C.3       1 GLC5        0.0000 
     25 CA         27.1910  -40.3690   -8.6680 C.3       3 GLL5        0.0000 
     26 CA         23.6750  -40.8880  -11.1990 C.3       2 GLP5        0.0000 
     27 CA         24.7482  -39.7230  -10.4300 C.3       1 GLC5        0.0000 
     28 CA         25.3700  -39.0620   -9.5000 C.3       3 GLL5        0.0000 
     29 CA         24.6152  -37.3220  -10.4490 C.3       1 GLC5        0.0000 
     30 CA         23.4090  -36.0860  -11.2370 C.3       2 GLP5        0.0000 
     31 CA         33.6559  -35.9795   -6.2873 C.3       1 GLC5        0.0000 
     32 CA         34.0900  -37.7340   -7.4710 C.3       3 GLL5        0.0000 
     33 CA         32.8365  -38.5158   -4.3848 C.3       1 GLC5        0.0000 
     34 CA         31.5385  -42.8413  -10.2910 C.3       1 GLC5        0.0000 
     35 CA         31.5430  -43.0260   -8.8900 C.3       3 GLL5        0.0000 
     36 CA         32.2512  -45.2481   -9.8283 C.3       1 GLC5        0.0000 
     37 CA         32.3290  -46.5090  -11.3350 C.3       2 GLP5        0.0000 
@<TRIPOS>BOND
@<TRIPOS>SUBSTRUCTURE
     1 GLC5        1 GROUP        1 X    GLC  0     ROOT GLC X 6
     2 GLP5        3 GROUP        1 Y    GLP  0     ROOT GLP Y 13
     3 GLL5        2 GROUP        1 Z    GLL  0     ROOT GLL Z 20
@<TRIPOS>SET

