#    Name: 4e26_734_2_ligand
#    Modification time : Tue Mar 25 10:30:57 2014

@<TRIPOS>MOLECULE
4e26_734_2_ligand
   39    42     1     0     0
SMALL
NO_CHARGES


@<TRIPOS>ATOM
      1 CAA        33.7980  -37.6830   -5.0880 C.ar      1 734801      0.0000 
      2 CAB        29.4190  -39.4640   -8.7600 C.ar      1 734801      0.0000 
      3 CAC        29.9120  -40.6190   -8.1790 C.ar      1 734801      0.0000 
      4 CAD        29.0480  -41.6540   -7.8400 C.ar      1 734801      0.0000 
      5 CAE        27.6860  -41.5290   -8.0860 C.ar      1 734801      0.0000 
      6 CAF        31.7610  -42.1960   -8.0330 C.2       1 734801      0.0000 
      7 CAG        27.1910  -40.3690   -8.6680 C.ar      1 734801      0.0000 
      8 CAH        25.8320  -40.2340   -8.9170 C.ar      1 734801      0.0000 
      9 CAI        25.3700  -39.0620   -9.5000 C.ar      1 734801      0.0000 
     10 CAJ        26.2730  -38.0540   -9.8220 C.ar      1 734801      0.0000 
     11 CAK        34.4130  -37.1930   -6.2320 C.ar      1 734801      0.0000 
     12 CAL        28.0570  -39.3350   -9.0070 C.ar      1 734801      0.0000 
     13 CAM        31.3630  -40.7540   -7.9180 C.3       1 734801      0.0000 
     14 CAN        34.0900  -37.7340   -7.4710 C.ar      1 734801      0.0000 
     15 CAO        32.5770  -39.2180   -6.4730 C.ar      1 734801      0.0000 
     16 CAP        32.8690  -38.7070   -5.2120 C.ar      1 734801      0.0000 
     17 CAQ        31.5430  -43.0260   -8.8900 C.2       1 734801      0.0000 
     18 CAR        31.9410  -44.0570   -8.7720 C.2       1 734801      0.0000 
     19 CAS        32.6050  -44.4330   -7.8120 C.2       1 734801      0.0000 
     20 NAT        31.6720  -40.2170   -6.6020 N.pl3     1 734801      0.0000 
     21 NAU        33.1920  -38.7210   -7.5690 N.ar      1 734801      0.0000 
     22 NAV        27.5800  -38.2050   -9.5740 N.ar      1 734801      0.0000 
     23 OAW        32.5610  -43.0850   -7.1240 O.3       1 734801      0.0000 
     24 OAX        30.2690  -38.4520   -9.0900 O.3       1 734801      0.0000 
     25 CLAY       26.5670  -42.8630   -7.6490 Cl        1 734801      0.0000 
     26 H          34.0253  -37.2965   -4.1703 H         1 734801      0.0000 
     27 H          29.4165  -42.5109   -7.4078 H         1 734801      0.0000 
     28 H          25.1828  -40.9846   -8.6752 H         1 734801      0.0000 
     29 H          24.3704  -38.9388   -9.6925 H         1 734801      0.0000 
     30 H          25.9062  -37.1831  -10.2591 H         1 734801      0.0000 
     31 H          35.1022  -36.4358   -6.1643 H         1 734801      0.0000 
     32 H          31.9017  -40.1899   -8.6802 H         1 734801      0.0000 
     33 H          34.5635  -37.3521   -8.3161 H         1 734801      0.0000 
     34 H          32.4009  -39.0848   -4.3822 H         1 734801      0.0000 
     35 H          30.9474  -42.7106   -9.7640 H         1 734801      0.0000 
     36 H          31.7491  -44.8434   -9.5577 H         1 734801      0.0000 
     37 H          33.0252  -45.1233   -7.4615 H         1 734801      0.0000 
     38 H          31.1809  -40.6248   -5.8002 H         1 734801      0.0000 
     39 H          29.6767  -37.6718   -9.2908 H         1 734801      0.0000 
@<TRIPOS>BOND
     1   11    1 ar   
     2   16    1 ar   
     3   26    1 1    
     4    3    2 ar   
     5   12    2 ar   
     6   24    2 1    
     7    4    3 ar   
     8   13    3 1    
     9    5    4 ar   
    10   27    4 1    
    11    7    5 ar   
    12   25    5 1    
    13   13    6 1    
    14   17    6 2    
    15   23    6 1    
    16    8    7 ar   
    17   12    7 ar   
    18    9    8 ar   
    19   28    8 1    
    20   10    9 ar   
    21   29    9 1    
    22   22   10 ar   
    23   30   10 1    
    24   14   11 ar   
    25   31   11 1    
    26   22   12 ar   
    27   20   13 1    
    28   32   13 1    
    29   21   14 ar   
    30   33   14 1    
    31   16   15 ar   
    32   20   15 1    
    33   21   15 ar   
    34   34   16 1    
    35   18   17 1    
    36   35   17 1    
    37   19   18 2    
    38   36   18 1    
    39   23   19 1    
    40   37   19 1    
    41   38   20 1    
    42   39   24 1    
@<TRIPOS>SUBSTRUCTURE
     1 734801      1 GROUP   
@<TRIPOS>SET

