#    Name: 3s89_COD_3_INTS_M
#    Modification time : Tue Mar 25 12:20:03 2014

@<TRIPOS>MOLECULE
3s89_COD_3_INTS_M
   97     0    12     0     0
SMALL
NO_CHARGES


@<TRIPOS>ATOM
      1 CA         36.8965   -1.4220   82.4985 C.3       4 GLC5        0.0000 
      2 CA         37.7010   -2.8090   81.7050 C.3      12 GLL5        0.0000 
      3 CA         36.0920   -0.0350   83.2920 C.3       8 GLP5        0.0000 
      4 CA         39.1150   -3.3960   82.7370 C.3       4 GLC5        0.0000 
      5 CA         40.5290   -3.9830   83.7690 C.3       8 GLP5        0.0000 
      6 CA         37.3525   -6.2930   78.7720 C.3       4 GLC5        0.0000 
      7 CA         37.3940   -4.1470   79.2710 C.3      12 GLL5        0.0000 
      8 CA         37.3110   -8.4390   78.2730 C.3       8 GLP5        0.0000 
      9 CA         34.7485   -4.4380   79.2035 C.3       4 GLC5        0.0000 
     10 CA         36.5690   -4.4940   80.4580 C.3      12 GLL5        0.0000 
     11 CA         32.9280   -4.3820   77.9490 C.3       8 GLP5        0.0000 
     12 O          34.4780   -5.9540   81.0885 O.2       1 ALC1        0.0000 
     13 O          35.5950   -5.4390   80.4100 O.2       9 ALL1        0.0000 
     14 O          33.3610   -6.4690   81.7670 O.2       5 ALP1        0.0000 
     15 O          35.2420   -6.2245   79.2740 O.2       1 ALC1        0.0000 
     16 O          34.8890   -7.0100   78.1380 O.2       5 ALP1        0.0000 
     17 N          36.1965   -3.8215   77.5730 N.am      2 SEC2        0.0000 
     18 N          37.5170   -4.5480   77.9860 N.am     10 SEL2        0.0000 
     19 N          34.8760   -3.0950   77.1600 N.am      6 SEP2        0.0000 
     20 N          43.8980   -1.1140   78.8895 N.am      2 SEC2        0.0000 
     21 N          42.2490   -1.4980   79.0780 N.am     10 SEL2        0.0000 
     22 N          45.5470   -0.7300   78.7010 N.am      6 SEP2        0.0000 
     23 O          43.2860   -1.8975   79.8020 O.2       1 ALC1        0.0000 
     24 O          42.2490   -1.4980   79.0780 O.2       9 ALL1        0.0000 
     25 O          44.3230   -2.2970   80.5260 O.2       5 ALP1        0.0000 
     26 O          43.1115   -2.9240   79.4490 O.2       1 ALC1        0.0000 
     27 O          43.9740   -4.3500   79.8200 O.2       5 ALP1        0.0000 
     28 CA         42.6215   -4.4520   75.8740 C.3       4 GLC5        0.0000 
     29 CA         41.9210   -3.1440   77.3590 C.3      12 GLL5        0.0000 
     30 CA         43.3220   -5.7600   74.3890 C.3       8 GLP5        0.0000 
     31 O          43.8385   -2.8340   78.9480 O.2       1 ALC1        0.0000 
     32 O          43.3540   -3.3710   77.3700 O.2       9 ALL1        0.0000 
     33 O          43.6640   -3.8605   78.5950 O.2       1 ALC1        0.0000 
     34 CA         42.3275   -4.2075   74.6815 C.3       4 GLC5        0.0000 
     35 CA         41.3330   -2.6550   74.9740 C.3      12 GLL5        0.0000 
     36 N          42.7255   -4.2075   71.7980 N.am      2 SEC2        0.0000 
     37 N          42.4310   -2.8660   72.4070 N.am     10 SEL2        0.0000 
     38 N          43.0200   -5.5490   71.1890 N.am      6 SEP2        0.0000 
     39 N          42.5205   -3.2315   70.8380 N.am      2 SEC2        0.0000 
     40 N          42.6100   -3.5970   69.2690 N.am      6 SEP2        0.0000 
     41 Zn         38.5610   -0.3460   74.1295 Zn        3 ZIC7        0.0000 
     42 Zn         38.4050   -0.8130   73.1360 Zn       11 ZIL7        0.0000 
     43 Zn         38.7170    0.1210   75.1230 Zn        7 ZIP7        0.0000 
     44 CA         36.2775   -2.5445   74.5125 C.3       4 GLC5        0.0000 
     45 CA         37.4960   -3.8120   73.5620 C.3      12 GLL5        0.0000 
     46 CA         35.0590   -1.2770   75.4630 C.3       8 GLP5        0.0000 
     47 CA         38.7220   -7.1350   73.9740 C.3       4 GLC5        0.0000 
     48 CA         37.8080   -6.0490   72.6760 C.3      12 GLL5        0.0000 
     49 CA         39.6360   -8.2210   75.2720 C.3       8 GLP5        0.0000 
     50 CA         39.9945   -6.0705   73.0375 C.3       4 GLC5        0.0000 
     51 CA         42.1810   -6.0920   73.3990 C.3       8 GLP5        0.0000 
     52 CA         38.8260   -7.2365   71.5090 C.3       4 GLC5        0.0000 
     53 CA         39.8440   -8.4240   70.3420 C.3       8 GLP5        0.0000 
     54 CA         37.3160   -7.3700   71.3225 C.3       4 GLC5        0.0000 
     55 CA         36.8240   -8.6910   69.9690 C.3       8 GLP5        0.0000 
     56 CA         36.0505   -3.8355   75.6745 C.3       4 GLC5        0.0000 
     57 CA         36.3820   -5.6900   74.7090 C.3      12 GLL5        0.0000 
     58 CA         35.7190   -1.9810   76.6400 C.3       8 GLP5        0.0000 
     59 CA         38.0090   -6.9555   74.9905 C.3       4 GLC5        0.0000 
     60 CA         35.0750   -5.3035   70.4820 C.3       4 GLC5        0.0000 
     61 CA         35.5650   -5.0520   72.3940 C.3      12 GLL5        0.0000 
     62 CA         34.5850   -5.5550   68.5700 C.3       8 GLP5        0.0000 
     63 O          34.0235   -6.4185   73.4685 O.2       1 ALC1        0.0000 
     64 O          34.9500   -6.3410   72.2160 O.2       9 ALL1        0.0000 
     65 O          33.0970   -6.4960   74.7210 O.2       5 ALP1        0.0000 
     66 N          32.3445   -4.9340   73.3615 N.am      2 SEC2        0.0000 
     67 N          33.7540   -4.1380   73.6630 N.am     10 SEL2        0.0000 
     68 N          30.9350   -5.7300   73.0600 N.am      6 SEP2        0.0000 
     69 CA         32.3990   -2.4485   70.5005 C.3       4 GLC5        0.0000 
     70 CA         33.7450   -1.7060   72.0970 C.3      12 GLL5        0.0000 
     71 CA         31.0530   -3.1910   68.9040 C.3       8 GLP5        0.0000 
     72 CA         34.8070    1.1440   73.3725 C.3       4 GLC5        0.0000 
     73 CA         34.5440   -0.4280   71.8050 C.3      12 GLL5        0.0000 
     74 CA         35.0700    2.7160   74.9400 C.3       8 GLP5        0.0000 
     75 CA         32.7700    1.0345   67.4865 C.3       4 GLC5        0.0000 
     76 CA         33.5730    2.1170   69.1340 C.3      12 GLL5        0.0000 
     77 CA         31.9670   -0.0480   65.8390 C.3       8 GLP5        0.0000 
     78 CA         35.4630    2.2225   68.3570 C.3       4 GLC5        0.0000 
     79 CA         37.3530    2.3280   67.5800 C.3       8 GLP5        0.0000 
     80 CA         34.6085    4.7545   69.6390 C.3       4 GLC5        0.0000 
     81 CA         32.8840    4.6990   68.4920 C.3      12 GLL5        0.0000 
     82 CA         36.3330    4.8100   70.7860 C.3       8 GLP5        0.0000 
     83 CA         36.8085   -2.8010   78.0095 C.3       4 GLC5        0.0000 
     84 CA         38.4020   -3.0950   79.4870 C.3      12 GLL5        0.0000 
     85 CA         40.4580   -0.2512   78.5548 C.3       4 GLC5        0.0000 
     86 CA         40.0940   -1.9270   78.1660 C.3      12 GLL5        0.0000 
     87 CA         40.1770    1.7430   78.7030 C.3       8 GLP5        0.0000 
     88 CA         41.4008   -4.6550   78.8465 C.3       4 GLC5        0.0000 
     89 CA         41.3840   -2.5640   78.6470 C.3      12 GLL5        0.0000 
     90 CA         41.1490   -6.4560   79.6900 C.3       8 GLP5        0.0000 
     91 CA         32.8902   -0.4615   73.3360 C.3       4 GLC5        0.0000 
     92 CA         31.6360    0.1440   74.7210 C.3       8 GLP5        0.0000 
     93 CA         34.6017   -1.1720   73.7070 C.3       4 GLC5        0.0000 
     94 CA         34.6705    3.7162   69.9983 C.3       4 GLC5        0.0000 
     95 CA         30.9202    3.4287   67.7807 C.3       4 GLC5        0.0000 
     96 CA         32.4430    3.1280   69.2870 C.3      12 GLL5        0.0000 
     97 CA         29.1770    2.9440   66.6720 C.3       8 GLP5        0.0000 
@<TRIPOS>BOND
@<TRIPOS>SUBSTRUCTURE
     1 ALC1       12 GROUP        1 X    ALC  0     ROOT ALC X 1
     2 SEC2       17 GROUP        1 X    SEC  0     **** SEC X 2
     3 ZIC7       41 GROUP        1 X    ZIC  0     **** ZIC X 5
     4 GLC5        1 GROUP        1 X    GLC  0     **** GLC X 6
     5 ALP1       14 GROUP        1 Y    ALP  0     ROOT ALP Y 8
     6 SEP2       19 GROUP        1 Y    SEP  0     **** SEP Y 9
     7 ZIP7       43 GROUP        1 Y    ZIP  0     **** ZIP Y 12
     8 GLP5        3 GROUP        1 Y    GLP  0     **** GLP Y 13
     9 ALL1       13 GROUP        1 Z    ALL  0     ROOT ALL Z 15
    10 SEL2       18 GROUP        1 Z    SEL  0     **** SEL Z 16
    11 ZIL7       42 GROUP        1 Z    ZIL  0     **** ZIL Z 19
    12 GLL5        2 GROUP        1 Z    GLL  0     **** GLL Z 20
@<TRIPOS>SET

