#    Name: 3s89_COD_3_ligand
#    Modification time : Tue Mar 25 12:20:03 2014

@<TRIPOS>MOLECULE
3s89_COD_3_ligand
   76    78     1     0     0
SMALL
NO_CHARGES


@<TRIPOS>ATOM
      1 N1         36.7430   -3.7500   81.5840 N.ar      1 COD437      0.0000 
      2 C2         37.7010   -2.8090   81.7050 C.ar      1 COD437      0.0000 
      3 N3         38.5130   -2.4760   80.6920 N.ar      1 COD437      0.0000 
      4 C4         38.4020   -3.0950   79.4870 C.ar      1 COD437      0.0000 
      5 C5         37.3940   -4.1470   79.2710 C.ar      1 COD437      0.0000 
      6 C6         36.5690   -4.4940   80.4580 C.ar      1 COD437      0.0000 
      7 N7         35.5950   -5.4390   80.4100 N.pl3     1 COD437      0.0000 
      8 N8         37.5170   -4.5480   77.9860 N.2       1 COD437      0.0000 
      9 C9         38.5260   -3.8160   77.4350 C.2       1 COD437      0.0000 
     10 N10        39.0010   -2.9090   78.3200 N.pl3     1 COD437      0.0000 
     11 C11        40.0940   -1.9270   78.1660 C.3       1 COD437      0.0000 
     12 C12        41.3840   -2.5640   78.6470 C.3       1 COD437      0.0000 
     13 O13        42.2490   -1.4980   79.0780 O.3       1 COD437      0.0000 
     14 C14        41.9210   -3.1440   77.3590 C.3       1 COD437      0.0000 
     15 O15        43.3540   -3.3710   77.3700 O.3       1 COD437      0.0000 
     16 C16        41.5140   -2.0640   76.3630 C.3       1 COD437      0.0000 
     17 O17        40.2650   -1.5440   76.8080 O.3       1 COD437      0.0000 
     18 C18        41.3330   -2.6550   74.9740 C.3       1 COD437      0.0000 
     19 O19        41.0670   -1.5910   74.0840 O.3       1 COD437      0.0000 
     20 P20        41.2740   -1.8970   72.5330 P.3       1 COD437      0.0000 
     21 O21        41.2820   -0.5820   71.7820 O.co2     1 COD437      0.0000 
     22 O22        42.4310   -2.8660   72.4070 O.co2     1 COD437      0.0000 
     23 O23        39.8990   -2.6780   72.1990 O.3       1 COD437      0.0000 
     24 P24        38.4980   -1.8670   72.0560 P.3       1 COD437      0.0000 
     25 O25        38.4050   -0.8130   73.1360 O.co2     1 COD437      0.0000 
     26 O26        38.3000   -1.4800   70.6040 O.co2     1 COD437      0.0000 
     27 O27        37.4230   -3.0150   72.3820 O.3       1 COD437      0.0000 
     28 C28        37.4960   -3.8120   73.5620 C.3       1 COD437      0.0000 
     29 C29        36.7820   -5.1400   73.3390 C.3       1 COD437      0.0000 
     30 C30        37.8080   -6.0490   72.6760 C.3       1 COD437      0.0000 
     31 C31        36.3820   -5.6900   74.7090 C.3       1 COD437      0.0000 
     32 C32        35.5650   -5.0520   72.3940 C.3       1 COD437      0.0000 
     33 O33        34.9500   -6.3410   72.2160 O.3       1 COD437      0.0000 
     34 C34        34.5300   -3.9940   72.7270 C.2       1 COD437      0.0000 
     35 O35        33.7540   -4.1380   73.6630 O.2       1 COD437      0.0000 
     36 N36        34.5330   -2.9220   71.9210 N.am      1 COD437      0.0000 
     37 C37        33.7450   -1.7060   72.0970 C.3       1 COD437      0.0000 
     38 C38        34.5440   -0.4280   71.8050 C.3       1 COD437      0.0000 
     39 C39        34.2330    0.1490   70.4370 C.2       1 COD437      0.0000 
     40 O40        34.3140   -0.5550   69.4440 O.2       1 COD437      0.0000 
     41 N41        33.8680    1.4300   70.3860 N.am      1 COD437      0.0000 
     42 C42        33.5730    2.1170   69.1340 C.3       1 COD437      0.0000 
     43 C43        32.4430    3.1280   69.2870 C.3       1 COD437      0.0000 
     44 S44        32.8840    4.6990   68.4920 S.3       1 COD437      0.0000 
     45 H          37.8134   -2.3164   82.6370 H         1 COD437      0.0000 
     46 H          35.7625   -6.2129   79.7992 H         1 COD437      0.0000 
     47 H          34.7963   -5.2775   80.9897 H         1 COD437      0.0000 
     48 H          38.8580   -3.9342   76.5229 H         1 COD437      0.0000 
     49 H          39.9017   -1.0713   78.7944 H         1 COD437      0.0000 
     50 H          41.1938   -3.2886   79.3292 H         1 COD437      0.0000 
     51 H          41.3533   -4.0193   77.1275 H         1 COD437      0.0000 
     52 H          42.2665   -1.3154   76.3381 H         1 COD437      0.0000 
     53 H          40.5113   -3.3711   75.0193 H         1 COD437      0.0000 
     54 H          42.2478   -3.1905   74.7162 H         1 COD437      0.0000 
     55 H          37.0209   -3.3156   74.4182 H         1 COD437      0.0000 
     56 H          38.5348   -4.0325   73.8403 H         1 COD437      0.0000 
     57 H          35.9972   -4.7546   71.3815 H         1 COD437      0.0000 
     58 H          35.1593   -2.9133   71.0517 H         1 COD437      0.0000 
     59 H          33.3609   -1.6345   73.1305 H         1 COD437      0.0000 
     60 H          32.8629   -1.7113   71.4317 H         1 COD437      0.0000 
     61 H          35.6135   -0.6588   71.8696 H         1 COD437      0.0000 
     62 H          34.3131    0.3157   72.5763 H         1 COD437      0.0000 
     63 H          33.7742    2.0122   71.2518 H         1 COD437      0.0000 
     64 H          33.2834    1.3955   68.3521 H         1 COD437      0.0000 
     65 H          34.4632    2.6519   68.7635 H         1 COD437      0.0000 
     66 H          32.2656    3.4245   70.2930 H         1 COD437      0.0000 
     67 H          31.5516    2.8563   68.7741 H         1 COD437      0.0000 
     68 H          38.1267   -5.6758   71.8047 H         1 COD437      0.0000 
     69 H          38.6152   -6.1799   73.2516 H         1 COD437      0.0000 
     70 H          37.4328   -6.9564   72.4865 H         1 COD437      0.0000 
     71 H          37.1775   -5.8369   75.2969 H         1 COD437      0.0000 
     72 H          35.7694   -5.0667   75.1950 H         1 COD437      0.0000 
     73 H          35.9077   -6.5671   74.6330 H         1 COD437      0.0000 
     74 H          42.9583   -1.9448   79.6233 H         1 COD437      0.0000 
     75 H          43.5682   -3.6265   78.3128 H         1 COD437      0.0000 
     76 H          34.3051   -6.4270   72.9754 H         1 COD437      0.0000 
@<TRIPOS>BOND
     1    2    1 ar   
     2    6    1 ar   
     3    3    2 ar   
     4   45    2 1    
     5    4    3 ar   
     6    5    4 ar   
     7   10    4 1    
     8    6    5 ar   
     9    8    5 1    
    10    7    6 1    
    11   46    7 1    
    12   47    7 1    
    13    9    8 2    
    14   10    9 1    
    15   48    9 1    
    16   11   10 1    
    17   12   11 1    
    18   17   11 1    
    19   49   11 1    
    20   13   12 1    
    21   14   12 1    
    22   50   12 1    
    23   74   13 1    
    24   15   14 1    
    25   16   14 1    
    26   51   14 1    
    27   75   15 1    
    28   17   16 1    
    29   18   16 1    
    30   52   16 1    
    31   19   18 1    
    32   53   18 1    
    33   54   18 1    
    34   20   19 1    
    35   21   20 ar   
    36   22   20 ar   
    37   23   20 1    
    38   24   23 1    
    39   25   24 ar   
    40   26   24 ar   
    41   27   24 1    
    42   28   27 1    
    43   29   28 1    
    44   55   28 1    
    45   56   28 1    
    46   30   29 1    
    47   31   29 1    
    48   32   29 1    
    49   68   30 1    
    50   69   30 1    
    51   70   30 1    
    52   71   31 1    
    53   72   31 1    
    54   73   31 1    
    55   33   32 1    
    56   34   32 1    
    57   57   32 1    
    58   76   33 1    
    59   35   34 2    
    60   36   34 am   
    61   37   36 1    
    62   58   36 1    
    63   38   37 1    
    64   59   37 1    
    65   60   37 1    
    66   39   38 1    
    67   61   38 1    
    68   62   38 1    
    69   40   39 2    
    70   41   39 am   
    71   42   41 1    
    72   63   41 1    
    73   43   42 1    
    74   64   42 1    
    75   65   42 1    
    76   44   43 1    
    77   66   43 1    
    78   67   43 1    
@<TRIPOS>SUBSTRUCTURE
     1 COD437      1 GROUP   
@<TRIPOS>SET

