#    Name: 2G8N_1_CAVITY_N1_6.mol2
#    Modification time : Mon Mar 10 14:09:46 2014

@<TRIPOS>MOLECULE
2G8N_1_CAVITY_N1_6.mol2
   64     0     5     0     0
SMALL
NO_CHARGES


@<TRIPOS>ATOM
      1 O          29.0094   41.9495   14.7545 O.2       2 ALA2        0.0000 
      2 CA         31.4153   43.7328   20.1657 C.3       5 GLY6        0.0000 
      3 NZ         29.5718   42.8382   19.6170 N.2       3 LYS4        0.0000 
      4 N          30.6352   43.6074   18.8907 N.2       2 ALA2        0.0000 
      5 NZ         28.7917   42.7128   18.3420 N.2       3 LYS4        0.0000 
      6 CA         26.9482   41.8181   17.7933 C.3       5 GLY6        0.0000 
      7 O          28.0116   42.5873   17.0669 O.2       2 ALA2        0.0000 
      8 N          29.0750   43.3565   16.3406 N.2       2 ALA2        0.0000 
      9 CA         27.2315   42.4619   15.7919 C.3       5 GLY6        0.0000 
     10 N          28.2949   43.2311   15.0656 N.2       2 ALA2        0.0000 
     11 CA         29.3583   44.0003   14.3393 C.3       5 GLY6        0.0000 
     12 CA         26.4514   42.3365   14.5169 C.3       5 GLY6        0.0000 
     13 CA         27.5147   43.1057   13.7906 C.3       5 GLY6        0.0000 
     14 CA         26.7346   42.9802   12.5156 C.3       5 GLY6        0.0000 
     15 N          27.7980   43.7494   11.7893 N.2       2 ALA2        0.0000 
     16 NZ         29.6374   44.2453   21.2031 N.2       3 LYS4        0.0000 
     17 CZ         30.7008   45.0145   20.4768 C.ar      4 PHE5        0.0000 
     18 NZ         27.7939   43.3506   20.6544 N.2       3 LYS4        0.0000 
     19 NZ         28.8573   44.1198   19.9281 N.2       3 LYS4        0.0000 
     20 N          29.9207   44.8890   19.2018 N.2       2 ALA2        0.0000 
     21 CZ         30.9841   45.6582   18.4755 C.ar      4 PHE5        0.0000 
     22 CZ         27.0137   43.2252   19.3794 C.ar      4 PHE5        0.0000 
     23 CZ         28.0771   43.9944   18.6531 C.ar      4 PHE5        0.0000 
     24 N          29.1405   44.7636   17.9268 N.2       2 ALA2        0.0000 
     25 O          30.2039   45.5328   17.2005 O.2       2 ALA2        0.0000 
     26 CZ         27.2970   43.8690   17.3781 C.ar      4 PHE5        0.0000 
     27 CZ         28.3604   44.6382   16.6518 C.ar      4 PHE5        0.0000 
     28 CA         29.4238   45.4074   15.9255 C.3       5 GLY6        0.0000 
     29 CZ         27.5803   44.5127   15.3767 C.ar      4 PHE5        0.0000 
     30 CA         28.6437   45.2819   14.6504 C.3       5 GLY6        0.0000 
     31 CZ         25.7368   43.6181   14.8280 C.ar      4 PHE5        0.0000 
     32 CZ         26.8002   44.3873   14.1017 C.ar      4 PHE5        0.0000 
     33 CZ         27.8636   45.1565   13.3754 C.ar      4 PHE5        0.0000 
     34 CA         24.9567   43.4927   13.5530 C.3       5 GLY6        0.0000 
     35 CA         26.0201   44.2619   12.8267 C.3       5 GLY6        0.0000 
     36 CZ         27.0835   45.0311   12.1004 C.ar      4 PHE5        0.0000 
     37 CA         25.2400   44.1364   11.5517 C.3       5 GLY6        0.0000 
     38 CA         26.3034   44.9056   10.8254 C.3       5 GLY6        0.0000 
     39 CZ         27.3668   45.6748   10.0991 C.ar      4 PHE5        0.0000 
     40 CZ         26.5866   45.5494    8.8240 C.ar      4 PHE5        0.0000 
     41 CZ         29.7029   45.6523   22.7893 C.ar      4 PHE5        0.0000 
     42 NZ         28.9228   45.5269   21.5143 N.2       3 LYS4        0.0000 
     43 CZ         29.9862   46.2961   20.7880 C.ar      4 PHE5        0.0000 
     44 CZ         27.0793   44.6323   20.9655 C.ar      4 PHE5        0.0000 
     45 CZ         28.1427   45.4015   20.2392 C.ar      4 PHE5        0.0000 
     46 OG         29.2061   46.1707   19.5129 O.2       1 SER1        0.0000 
     47 OG         28.4260   46.0452   18.2379 O.2       1 SER1        0.0000 
     48 CZ         27.6459   45.9198   16.9629 C.ar      4 PHE5        0.0000 
     49 CZ         26.0856   45.6689   14.4128 C.ar      4 PHE5        0.0000 
     50 CZ         24.2421   44.7743   13.8641 C.ar      4 PHE5        0.0000 
     51 CZ         25.3055   45.5435   13.1378 C.ar      4 PHE5        0.0000 
     52 CA         23.4620   44.6489   12.5891 C.3       5 GLY6        0.0000 
     53 CA         24.5254   45.4181   11.8628 C.3       5 GLY6        0.0000 
     54 CZ         25.5888   46.1873   11.1365 C.ar      4 PHE5        0.0000 
     55 CZ         26.6522   46.9565   10.4102 C.ar      4 PHE5        0.0000 
     56 CA         23.7453   45.2927   10.5878 C.3       5 GLY6        0.0000 
     57 CA         24.8087   46.0619    9.8615 C.3       5 GLY6        0.0000 
     58 CZ         25.8721   46.8310    9.1352 C.ar      4 PHE5        0.0000 
     59 N          28.2083   46.8086   21.8254 N.2       2 ALA2        0.0000 
     60 N          29.2716   47.5777   21.0991 N.2       2 ALA2        0.0000 
     61 OG         24.5909   46.8252   13.4489 O.2       1 SER1        0.0000 
     62 CA         23.8108   46.6997   12.1739 C.3       5 GLY6        0.0000 
     63 CZ         24.8742   47.4689   11.4476 C.ar      4 PHE5        0.0000 
     64 CZ         24.0941   47.3435   10.1726 C.ar      4 PHE5        0.0000 
@<TRIPOS>BOND
@<TRIPOS>SUBSTRUCTURE
     1 SER1       46 GROUP   
     2 ALA2        1 GROUP   
     3 LYS4        3 GROUP   
     4 PHE5       17 GROUP   
     5 GLY6        2 GROUP   
@<TRIPOS>SET

