#    Name: 2g8n_F83_1_INTS_M
#    Modification time : Tue Mar 25 13:45:24 2014

@<TRIPOS>MOLECULE
2g8n_F83_1_INTS_M
   65     0     9     0     0
SMALL
NO_CHARGES


@<TRIPOS>ATOM
      1 O          27.9530   45.2835   22.7265 O.2       1 ALC1        0.0000 
      2 O          29.0990   44.7580   22.6830 O.2       7 ALL1        0.0000 
      3 O          26.8070   45.8090   22.7700 O.2       4 ALP1        0.0000 
      4 CA         27.8210   46.7230   20.8365 C.3       3 GLC5        0.0000 
      5 CA         29.5500   45.4790   21.5340 C.3       9 GLL5        0.0000 
      6 CA         26.0920   47.9670   20.1390 C.3       6 GLP5        0.0000 
      7 CA         29.0595   46.6110   23.3830 C.3       3 GLC5        0.0000 
      8 CA         28.5690   47.7430   25.2320 C.3       6 GLP5        0.0000 
      9 CA         30.8725   45.1200   22.6360 C.3       3 GLC5        0.0000 
     10 CA         32.1950   44.7610   23.7380 C.3       6 GLP5        0.0000 
     11 CA         27.0575   45.2825   19.8615 C.3       3 GLC5        0.0000 
     12 CA         28.9030   44.8560   20.2970 C.3       9 GLL5        0.0000 
     13 CA         25.2120   45.7090   19.4260 C.3       6 GLP5        0.0000 
     14 OD1        29.2915   42.4225   20.9665 O.co2     2 ASC3        0.0000 
     15 OD1        29.4180   43.4930   20.0970 O.co2     8 ASL3        0.0000 
     16 OD1        29.1650   41.3520   21.8360 O.co2     5 ASP3        0.0000 
     17 OD1        29.3665   43.0475   21.8580 O.co2     2 ASC3        0.0000 
     18 OD1        29.3150   42.6020   23.6190 O.co2     5 ASP3        0.0000 
     19 OD1        30.2705   42.0080   19.5135 O.co2     2 ASC3        0.0000 
     20 OD1        31.1230   40.5230   18.9300 O.co2     5 ASP3        0.0000 
     21 CA         26.6920   43.7910   18.7720 C.3       3 GLC5        0.0000 
     22 CA         28.5950   42.7870   19.1030 C.3       9 GLL5        0.0000 
     23 CA         24.7890   44.7950   18.4410 C.3       6 GLP5        0.0000 
     24 CA         27.0325   42.6245   20.5505 C.3       3 GLC5        0.0000 
     25 CA         25.4700   42.4620   21.9980 C.3       6 GLP5        0.0000 
     26 CA         28.1355   40.8010   19.6590 C.3       3 GLC5        0.0000 
     27 CA         27.6760   38.8150   20.2150 C.3       6 GLP5        0.0000 
     28 CA         27.4130   41.0505   16.0445 C.3       3 GLC5        0.0000 
     29 CA         28.0420   42.9760   16.6550 C.3       9 GLL5        0.0000 
     30 CA         26.7840   39.1250   15.4340 C.3       6 GLP5        0.0000 
     31 CA         30.7485   46.8995   18.8545 C.3       3 GLC5        0.0000 
     32 CA         29.2450   45.6850   19.0580 C.3       9 GLL5        0.0000 
     33 CA         32.2520   48.1140   18.6510 C.3       6 GLP5        0.0000 
     34 CA         27.4235   46.3460   19.0705 C.3       3 GLC5        0.0000 
     35 CA         25.6020   47.0070   19.0830 C.3       6 GLP5        0.0000 
     36 O          29.1920   44.1745   12.2360 O.2       1 ALC1        0.0000 
     37 O          27.8390   43.8210   12.7710 O.2       7 ALL1        0.0000 
     38 O          30.5450   44.5280   11.7010 O.2       4 ALP1        0.0000 
     39 CA         23.0290   46.4345   11.7745 C.3       3 GLC5        0.0000 
     40 CA         25.0270   46.0980   11.7300 C.3       9 GLL5        0.0000 
     41 CA         21.0310   46.7710   11.8190 C.3       6 GLP5        0.0000 
     42 CA         24.2325   45.3865    8.6130 C.3       3 GLC5        0.0000 
     43 CA         24.3110   47.2170    9.3510 C.3       9 GLL5        0.0000 
     44 CA         24.1540   43.5560    7.8750 C.3       6 GLP5        0.0000 
     45 CA         23.0595   47.6465    7.9980 C.3       3 GLC5        0.0000 
     46 CA         21.8080   48.0760    6.6450 C.3       6 GLP5        0.0000 
     47 CA         24.1590   48.7415   10.3085 C.3       3 GLC5        0.0000 
     48 CA         24.0070   50.2660   11.2660 C.3       6 GLP5        0.0000 
     49 CA         25.8395   47.6810    8.4400 C.3       3 GLC5        0.0000 
     50 CA         27.3680   48.1450    7.5290 C.3       6 GLP5        0.0000 
     51 CA         29.7918   44.7448   14.9915 C.3       3 GLC5        0.0000 
     52 CA         28.0770   45.0850   15.4840 C.3       9 GLL5        0.0000 
     53 CA         31.6220   45.0900   14.4970 C.3       6 GLP5        0.0000 
     54 CA         30.1195   45.2208   15.8610 C.3       3 GLC5        0.0000 
     55 CA         28.5160   45.7200   16.6450 C.3       9 GLL5        0.0000 
     56 CA         26.0207   43.0795   11.5820 C.3       3 GLC5        0.0000 
     57 CA         26.9100   44.6130   11.9490 C.3       9 GLL5        0.0000 
     58 CA         25.6600   41.1970   10.9260 C.3       6 GLP5        0.0000 
     59 CA         22.9192   46.0815   10.4428 C.3       3 GLC5        0.0000 
     60 CA         25.2620   46.1850   10.3560 C.3       9 GLL5        0.0000 
     61 CA         21.0520   45.4620   11.0320 C.3       6 GLP5        0.0000 
     62 CA         26.1928   43.1397   10.5535 C.3       3 GLC5        0.0000 
     63 CA         26.3130   45.4760    9.7820 C.3       9 GLL5        0.0000 
     64 CA         25.3084   44.4079    9.0998 C.3       3 GLC5        0.0000 
     65 CA         27.1380   44.6890   10.5800 C.3       9 GLL5        0.0000 
@<TRIPOS>BOND
@<TRIPOS>SUBSTRUCTURE
     1 ALC1        1 GROUP        1 X    ALC  0     ROOT ALC X 1
     2 ASC3       14 GROUP        1 X    ASC  0     **** ASC X 3
     3 GLC5        4 GROUP        1 X    GLC  0     **** GLC X 6
     4 ALP1        3 GROUP        1 Y    ALP  0     ROOT ALP Y 8
     5 ASP3       16 GROUP        1 Y    ASP  0     **** ASP Y 10
     6 GLP5        6 GROUP        1 Y    GLP  0     **** GLP Y 13
     7 ALL1        2 GROUP        1 Z    ALL  0     ROOT ALL Z 15
     8 ASL3       15 GROUP        1 Z    ASL  0     **** ASL Z 17
     9 GLL5        5 GROUP        1 Z    GLL  0     **** GLL Z 20
@<TRIPOS>SET

