#    Name: 2g8n_F83_1_ligand
#    Modification time : Tue Mar 25 13:45:24 2014

@<TRIPOS>MOLECULE
2g8n_F83_1_ligand
   39    41     1     0     0
SMALL
NO_CHARGES


@<TRIPOS>ATOM
      1 O1         29.0990   44.7580   22.6830 O.3       1 F832001     0.0000 
      2 C1         29.5500   45.4790   21.5340 C.3       1 F832001     0.0000 
      3 C2         28.9030   44.8560   20.2970 C.3       1 F832001     0.0000 
      4 N1         29.4180   43.4930   20.0970 N.4       1 F832001     0.0000 
      5 C3         28.5950   42.7870   19.1030 C.3       1 F832001     0.0000 
      6 C4         28.4720   43.6060   17.8120 C.ar      1 F832001     0.0000 
      7 C5         28.0420   42.9760   16.6550 C.ar      1 F832001     0.0000 
      8 C6         27.8460   43.7140   15.4880 C.ar      1 F832001     0.0000 
      9 C7         28.0770   45.0850   15.4840 C.ar      1 F832001     0.0000 
     10 C8         28.5160   45.7200   16.6450 C.ar      1 F832001     0.0000 
     11 C9         28.7180   44.9830   17.8050 C.ar      1 F832001     0.0000 
     12 C10        29.2450   45.6850   19.0580 C.3       1 F832001     0.0000 
     13 S1         27.3310   42.9130   14.0240 S.o2      1 F832001     0.0000 
     14 O2         25.9100   42.7710   14.0030 O.2       1 F832001     0.0000 
     15 O3         27.9720   41.5570   13.9310 O.2       1 F832001     0.0000 
     16 N2         27.8390   43.8210   12.7710 N.pl3     1 F832001     0.0000 
     17 C11        26.9100   44.6130   11.9490 C.ar      1 F832001     0.0000 
     18 C12        25.8530   45.3110   12.5270 C.ar      1 F832001     0.0000 
     19 C13        25.0270   46.0980   11.7300 C.ar      1 F832001     0.0000 
     20 C14        25.2620   46.1850   10.3560 C.ar      1 F832001     0.0000 
     21 C15        26.3130   45.4760    9.7820 C.ar      1 F832001     0.0000 
     22 C16        27.1380   44.6890   10.5800 C.ar      1 F832001     0.0000 
     23 CL1        24.3110   47.2170    9.3510 Cl        1 F832001     0.0000 
     24 H          30.6309   45.4177   21.4135 H         1 F832001     0.0000 
     25 H          29.2590   46.5281   21.5718 H         1 F832001     0.0000 
     26 H          27.8437   44.8446   20.4218 H         1 F832001     0.0000 
     27 H          27.5869   42.6081   19.4917 H         1 F832001     0.0000 
     28 H          29.0379   41.8174   18.8519 H         1 F832001     0.0000 
     29 H          27.8659   41.9620   16.6529 H         1 F832001     0.0000 
     30 H          27.9249   45.6311   14.6273 H         1 F832001     0.0000 
     31 H          28.6894   46.7329   16.6403 H         1 F832001     0.0000 
     32 H          30.3208   45.7927   18.9835 H         1 F832001     0.0000 
     33 H          28.7853   46.6628   19.1418 H         1 F832001     0.0000 
     34 H          28.8199   43.7969   12.6079 H         1 F832001     0.0000 
     35 H          25.6839   45.2452   13.5369 H         1 F832001     0.0000 
     36 H          24.2454   46.6147   12.1493 H         1 F832001     0.0000 
     37 H          26.4798   45.5335    8.7697 H         1 F832001     0.0000 
     38 H          27.9142   44.1653   10.1570 H         1 F832001     0.0000 
     39 H          28.4738   45.3824   23.1512 H         1 F832001     0.0000 
@<TRIPOS>BOND
     1    2    1 1    
     2   39    1 1    
     3    3    2 1    
     4   24    2 1    
     5   25    2 1    
     6    4    3 1    
     7   12    3 1    
     8   26    3 1    
     9    5    4 1    
    10    6    5 1    
    11   27    5 1    
    12   28    5 1    
    13    7    6 ar   
    14   11    6 ar   
    15    8    7 ar   
    16   29    7 1    
    17    9    8 ar   
    18   13    8 1    
    19   10    9 ar   
    20   30    9 1    
    21   11   10 ar   
    22   31   10 1    
    23   12   11 1    
    24   32   12 1    
    25   33   12 1    
    26   14   13 2    
    27   15   13 2    
    28   16   13 1    
    29   17   16 1    
    30   34   16 1    
    31   18   17 ar   
    32   22   17 ar   
    33   19   18 ar   
    34   35   18 1    
    35   20   19 ar   
    36   36   19 1    
    37   21   20 ar   
    38   23   20 1    
    39   22   21 ar   
    40   37   21 1    
    41   38   22 1    
@<TRIPOS>SUBSTRUCTURE
     1 F832001     1 GROUP   
@<TRIPOS>SET

