#    Name: 4jdr_FAD_1_INTS_M
#    Modification time : Tue Mar 25 05:48:30 2014

@<TRIPOS>MOLECULE
4jdr_FAD_1_INTS_M
  129     0     9     0     0
SMALL
NO_CHARGES


@<TRIPOS>ATOM
      1 N          37.4385    9.7180   49.2720 N.am      2 SEC2        0.0000 
      2 N          37.6350    8.6750   48.2350 N.am      8 SEL2        0.0000 
      3 N          37.2420   10.7610   50.3090 N.am      5 SEP2        0.0000 
      4 CA         35.0070    9.7840   43.4585 C.3       3 GLC5        0.0000 
      5 CA         35.9760   10.2320   45.1840 C.3       9 GLL5        0.0000 
      6 CA         34.0380    9.3360   41.7330 C.3       6 GLP5        0.0000 
      7 CA         34.9485    8.5695   44.9100 C.3       3 GLC5        0.0000 
      8 CA         33.9210    6.9070   44.6360 C.3       6 GLP5        0.0000 
      9 CA         36.7815   12.2160   43.3140 C.3       3 GLC5        0.0000 
     10 CA         36.0950   11.7450   45.0070 C.3       9 GLL5        0.0000 
     11 CA         37.4680   12.6870   41.6210 C.3       6 GLP5        0.0000 
     12 CA         36.9695   12.3845   47.5610 C.3       3 GLC5        0.0000 
     13 CA         35.4800   12.4610   46.1860 C.3       9 GLL5        0.0000 
     14 CA         38.4590   12.3080   48.9360 C.3       6 GLP5        0.0000 
     15 O          36.8490   14.1890   45.6620 O.2       1 ALC1        0.0000 
     16 O          36.4510   13.3820   46.6190 O.2       7 ALL1        0.0000 
     17 O          37.2470   14.9960   44.7050 O.2       4 ALP1        0.0000 
     18 O          36.0790   14.8525   46.0810 O.2       1 ALC1        0.0000 
     19 O          35.7070   16.3230   45.5430 O.2       4 ALP1        0.0000 
     20 N          32.5920   14.7035   45.7610 N.am      2 SEC2        0.0000 
     21 N          34.0750   14.4190   46.1280 N.am      8 SEL2        0.0000 
     22 N          31.1090   14.9880   45.3940 N.am      5 SEP2        0.0000 
     23 O          34.8910   15.3710   45.8355 O.2       1 ALC1        0.0000 
     24 O          34.0750   14.4190   46.1280 O.2       7 ALL1        0.0000 
     25 CA         36.0285   12.9935   42.8895 C.3       3 GLC5        0.0000 
     26 CA         34.5890   13.3000   44.1580 C.3       9 GLL5        0.0000 
     27 CA         31.5700   15.1170   43.1805 C.3       3 GLC5        0.0000 
     28 CA         32.0870   13.9290   41.6100 C.3       9 GLL5        0.0000 
     29 CA         31.0530   16.3050   44.7510 C.3       6 GLP5        0.0000 
     30 CA         32.4715   11.8130   41.2390 C.3       3 GLC5        0.0000 
     31 CA         32.8560    9.6970   40.8680 C.3       6 GLP5        0.0000 
     32 CA         33.2235   14.6055   38.9790 C.3       3 GLC5        0.0000 
     33 CA         31.6770   14.7400   40.5590 C.3       9 GLL5        0.0000 
     34 CA         34.7700   14.4710   37.3990 C.3       6 GLP5        0.0000 
     35 O          30.6440   14.7895   38.2630 O.2       1 ALC1        0.0000 
     36 O          30.8400   14.2330   39.6620 O.2       7 ALL1        0.0000 
     37 O          30.4480   15.3460   36.8640 O.2       4 ALP1        0.0000 
     38 N          32.0085   16.7405   39.1195 N.am      2 SEC2        0.0000 
     39 N          32.4480   15.8310   40.2050 N.am      8 SEL2        0.0000 
     40 N          31.5690   17.6500   38.0340 N.am      5 SEP2        0.0000 
     41 CA         34.1900   15.2950   39.1420 C.3       3 GLC5        0.0000 
     42 CA         33.6100   16.1190   40.8850 C.3       9 GLL5        0.0000 
     43 CA         34.7320   16.9050   39.5535 C.3       3 GLC5        0.0000 
     44 CA         35.8540   17.6910   38.2220 C.3       6 GLP5        0.0000 
     45 CA         35.3490   16.8575   41.6035 C.3       3 GLC5        0.0000 
     46 CA         37.0880   17.5960   42.3220 C.3       6 GLP5        0.0000 
     47 CA         33.0420   17.1330   42.3220 C.3       3 GLC5        0.0000 
     48 CA         32.4740   18.1470   43.7590 C.3       6 GLP5        0.0000 
     49 CA         32.1865   17.5330   40.3930 C.3       3 GLC5        0.0000 
     50 CA         30.7630   18.9470   39.9010 C.3       6 GLP5        0.0000 
     51 N          34.4565   16.6950   42.6180 N.am      2 SEC2        0.0000 
     52 N          34.0080   15.3180   41.9210 N.am      8 SEL2        0.0000 
     53 N          34.9050   18.0720   43.3150 N.am      5 SEP2        0.0000 
     54 CA         32.8365   15.6370   43.5255 C.3       3 GLC5        0.0000 
     55 CA         33.2610   14.2490   42.2750 C.3       9 GLL5        0.0000 
     56 CA         32.4120   17.0250   44.7760 C.3       6 GLP5        0.0000 
     57 N          41.2125    1.3115   51.3940 N.am      2 SEC2        0.0000 
     58 N          41.4340    0.9930   52.6910 N.am      8 SEL2        0.0000 
     59 N          40.9910    1.6300   50.0970 N.am      5 SEP2        0.0000 
     60 O          42.5225    1.4895   54.8675 O.2       1 ALC1        0.0000 
     61 O          41.1380    1.3610   54.9070 O.2       7 ALL1        0.0000 
     62 O          43.9070    1.6180   54.8280 O.2       4 ALP1        0.0000 
     63 N          40.8260    2.1995   58.5750 N.am      2 SEC2        0.0000 
     64 N          40.7430    1.8380   57.0890 N.am      8 SEL2        0.0000 
     65 N          40.9090    2.5610   60.0610 N.am      5 SEP2        0.0000 
     66 N          38.6430    3.5060   57.8055 N.am      2 SEC2        0.0000 
     67 N          38.4260    3.2090   56.5560 N.am      8 SEL2        0.0000 
     68 N          38.8600    3.8030   59.0550 N.am      5 SEP2        0.0000 
     69 CA         34.9525    3.1770   57.3680 C.3       3 GLC5        0.0000 
     70 CA         36.4910    4.4800   57.1870 C.3       9 GLL5        0.0000 
     71 CA         33.4140    1.8740   57.5490 C.3       6 GLP5        0.0000 
     72 CA         32.7375    6.4105   58.1190 C.3       3 GLC5        0.0000 
     73 CA         34.4660    5.8220   57.8110 C.3       9 GLL5        0.0000 
     74 CA         31.0090    6.9990   58.4270 C.3       6 GLP5        0.0000 
     75 CA         34.8485    7.6810   58.8385 C.3       3 GLC5        0.0000 
     76 CA         35.2310    9.5400   59.8660 C.3       6 GLP5        0.0000 
     77 CA         33.2855    4.5100   58.5205 C.3       3 GLC5        0.0000 
     78 CA         32.1050    3.1980   59.2300 C.3       6 GLP5        0.0000 
     79 CA         32.3870    6.5105   56.7645 C.3       3 GLC5        0.0000 
     80 CA         33.7650    6.0220   55.1020 C.3       9 GLL5        0.0000 
     81 CA         32.6630    4.7530   53.6895 C.3       3 GLC5        0.0000 
     82 CA         31.5610    3.4840   52.2770 C.3       6 GLP5        0.0000 
     83 CA         39.4035    5.9990   51.7965 C.3       3 GLC5        0.0000 
     84 CA         38.0450    4.2650   51.6660 C.3       9 GLL5        0.0000 
     85 CA         40.7620    7.7330   51.9270 C.3       6 GLP5        0.0000 
     86 CA         40.1805    3.9430   51.1580 C.3       3 GLC5        0.0000 
     87 CA         42.3160    3.6210   50.6500 C.3       6 GLP5        0.0000 
     88 O          37.0865    2.5365   48.5165 O.2       1 ALC1        0.0000 
     89 O          37.7910    2.9430   49.7150 O.2       7 ALL1        0.0000 
     90 O          36.3820    2.1300   47.3180 O.2       4 ALP1        0.0000 
     91 O          36.3685    3.2320   49.0095 O.2       1 ALC1        0.0000 
     92 O          34.9460    3.5210   48.3040 O.2       4 ALP1        0.0000 
     93 CA         39.5775    6.4610   50.6530 C.3       3 GLC5        0.0000 
     94 CA         38.3930    5.1890   49.3790 C.3       9 GLL5        0.0000 
     95 CA         40.1170    3.9380   49.4640 C.3       3 GLC5        0.0000 
     96 CA         41.8410    2.6870   49.5490 C.3       6 GLP5        0.0000 
     97 N          38.4850    7.7860   50.9035 N.am      2 SEC2        0.0000 
     98 N          38.2790    6.5190   49.8180 N.am      8 SEL2        0.0000 
     99 N          38.6910    9.0530   51.9890 N.am      5 SEP2        0.0000 
    100 CA         36.2725    4.0700   46.9475 C.3       3 GLC5        0.0000 
    101 CA         37.9510    5.0990   47.9310 C.3       9 GLL5        0.0000 
    102 CA         34.5940    3.0410   45.9640 C.3       6 GLP5        0.0000 
    103 N          40.7745    7.0600   44.9335 N.am      2 SEC2        0.0000 
    104 N          39.2500    7.3570   45.1770 N.am      8 SEL2        0.0000 
    105 N          42.2990    6.7630   44.6900 N.am      5 SEP2        0.0000 
    106 N          37.0640    4.0285   44.6430 N.am      2 SEC2        0.0000 
    107 N          37.6880    5.3620   44.9460 N.am      8 SEL2        0.0000 
    108 N          36.4400    2.6950   44.3400 N.am      5 SEP2        0.0000 
    109 CA         33.4135   15.1215   44.8308 C.3       3 GLC5        0.0000 
    110 CA         34.2410   13.1360   45.6130 C.3       9 GLL5        0.0000 
    111 CA         30.4100   15.5537   41.3017 C.3       3 GLC5        0.0000 
    112 CA         28.9380   16.7730   41.5190 C.3       6 GLP5        0.0000 
    113 CA         37.0740    6.1883   56.4492 C.3       3 GLC5        0.0000 
    114 CA         37.2850    3.8990   56.2100 C.3       9 GLL5        0.0000 
    115 CA         37.2600    8.1870   56.2000 C.3       6 GLP5        0.0000 
    116 CA         38.6145    5.1662   56.8588 C.3       3 GLC5        0.0000 
    117 CA         40.3410    6.1430   57.0190 C.3       6 GLP5        0.0000 
    118 CA         36.0830    6.8415   56.7548 C.3       3 GLC5        0.0000 
    119 CA         35.3460    5.1700   56.8080 C.3       9 GLL5        0.0000 
    120 CA         35.8220    6.9172   55.7447 C.3       3 GLC5        0.0000 
    121 CA         35.2065    6.7466   53.7019 C.3       3 GLC5        0.0000 
    122 CA         35.0030    5.2730   55.4770 C.3       9 GLL5        0.0000 
    123 CA         35.3240    8.3300   52.5090 C.3       6 GLP5        0.0000 
    124 CA         36.8118    6.2612   55.4428 C.3       3 GLC5        0.0000 
    125 CA         35.7940    4.6790   54.5000 C.3       9 GLL5        0.0000 
    126 CA         33.9449    3.8507   55.6956 C.3       3 GLC5        0.0000 
    127 CA         32.7580    2.5510   56.3300 C.3       6 GLP5        0.0000 
    128 CA         39.6490    6.6175   48.2835 C.3       3 GLC5        0.0000 
    129 CA         41.1260    8.0910   47.9120 C.3       6 GLP5        0.0000 
@<TRIPOS>BOND
@<TRIPOS>SUBSTRUCTURE
     1 ALC1       15 GROUP        1 X    ALC  0     ROOT ALC X 1
     2 SEC2        1 GROUP        1 X    SEC  0     **** SEC X 2
     3 GLC5        4 GROUP        1 X    GLC  0     **** GLC X 6
     4 ALP1       17 GROUP        1 Y    ALP  0     ROOT ALP Y 8
     5 SEP2        3 GROUP        1 Y    SEP  0     **** SEP Y 9
     6 GLP5        6 GROUP        1 Y    GLP  0     **** GLP Y 13
     7 ALL1       16 GROUP        1 Z    ALL  0     ROOT ALL Z 15
     8 SEL2        2 GROUP        1 Z    SEL  0     **** SEL Z 16
     9 GLL5        5 GROUP        1 Z    GLL  0     **** GLL Z 20
@<TRIPOS>SET

