#    Name: 4jdr_FAD_1_ligand
#    Modification time : Tue Mar 25 05:48:30 2014

@<TRIPOS>MOLECULE
4jdr_FAD_1_ligand
   84    89     1     0     0
SMALL
NO_CHARGES


@<TRIPOS>ATOM
      1 PA         36.6360    8.6120   47.1080 P.3       1 FAD501      0.0000 
      2 O1A        37.6350    8.6750   48.2350 O.co2     1 FAD501      0.0000 
      3 O2A        35.2100    8.5370   47.5590 O.co2     1 FAD501      0.0000 
      4 O5B        36.9400    9.8360   46.1360 O.3       1 FAD501      0.0000 
      5 C5B        35.9760   10.2320   45.1840 C.3       1 FAD501      0.0000 
      6 C4B        36.0950   11.7450   45.0070 C.3       1 FAD501      0.0000 
      7 O4B        35.4010   12.1820   43.8510 O.3       1 FAD501      0.0000 
      8 C3B        35.4800   12.4610   46.1860 C.3       1 FAD501      0.0000 
      9 O3B        36.4510   13.3820   46.6190 O.3       1 FAD501      0.0000 
     10 C2B        34.2410   13.1360   45.6130 C.3       1 FAD501      0.0000 
     11 O2B        34.0750   14.4190   46.1280 O.3       1 FAD501      0.0000 
     12 C1B        34.5890   13.3000   44.1580 C.3       1 FAD501      0.0000 
     13 N9A        33.4270   13.3180   43.2590 N.pl3     1 FAD501      0.0000 
     14 C8A        32.3800   12.4310   43.1850 C.2       1 FAD501      0.0000 
     15 N7A        31.5610   12.8110   42.1760 N.2       1 FAD501      0.0000 
     16 C5A        32.0870   13.9290   41.6100 C.ar      1 FAD501      0.0000 
     17 C6A        31.6770   14.7400   40.5590 C.ar      1 FAD501      0.0000 
     18 N6A        30.8400   14.2330   39.6620 N.pl3     1 FAD501      0.0000 
     19 N1A        32.4480   15.8310   40.2050 N.ar      1 FAD501      0.0000 
     20 C2A        33.6100   16.1190   40.8850 C.ar      1 FAD501      0.0000 
     21 N3A        34.0080   15.3180   41.9210 N.ar      1 FAD501      0.0000 
     22 C4A        33.2610   14.2490   42.2750 C.ar      1 FAD501      0.0000 
     23 N1         39.6130    2.1650   53.2700 N.2       1 FAD501      0.0000 
     24 C2         40.7610    1.4840   53.5930 C.2       1 FAD501      0.0000 
     25 O2         41.4340    0.9930   52.6910 O.2       1 FAD501      0.0000 
     26 N3         41.1380    1.3610   54.9070 N.am      1 FAD501      0.0000 
     27 C4         40.3840    1.9310   55.9100 C.2       1 FAD501      0.0000 
     28 O4         40.7430    1.8380   57.0890 O.2       1 FAD501      0.0000 
     29 C4X        39.2180    2.6180   55.5820 C.2       1 FAD501      0.0000 
     30 N5         38.4260    3.2090   56.5560 N.2       1 FAD501      0.0000 
     31 C5X        37.2850    3.8990   56.2100 C.ar      1 FAD501      0.0000 
     32 C6         36.4910    4.4800   57.1870 C.ar      1 FAD501      0.0000 
     33 C7         35.3460    5.1700   56.8080 C.ar      1 FAD501      0.0000 
     34 C7M        34.4660    5.8220   57.8110 C.3       1 FAD501      0.0000 
     35 C8         35.0030    5.2730   55.4770 C.ar      1 FAD501      0.0000 
     36 C8M        33.7650    6.0220   55.1020 C.3       1 FAD501      0.0000 
     37 C9         35.7940    4.6790   54.5000 C.ar      1 FAD501      0.0000 
     38 C9A        36.9330    3.9920   54.8710 C.ar      1 FAD501      0.0000 
     39 N10        37.7190    3.3960   53.9020 N.pl3     1 FAD501      0.0000 
     40 C10        38.8530    2.7290   54.2550 C.2       1 FAD501      0.0000 
     41 C1'        37.2460    3.2690   52.4900 C.3       1 FAD501      0.0000 
     42 C2'        38.0450    4.2650   51.6660 C.3       1 FAD501      0.0000 
     43 O2'        37.8940    5.5780   52.1910 O.3       1 FAD501      0.0000 
     44 C3'        37.5780    4.2350   50.2260 C.3       1 FAD501      0.0000 
     45 O3'        37.7910    2.9430   49.7150 O.3       1 FAD501      0.0000 
     46 C4'        38.3930    5.1890   49.3790 C.3       1 FAD501      0.0000 
     47 O4'        38.2790    6.5190   49.8180 O.3       1 FAD501      0.0000 
     48 C5'        37.9510    5.0990   47.9310 C.3       1 FAD501      0.0000 
     49 O5'        38.6390    6.1190   47.2590 O.3       1 FAD501      0.0000 
     50 P          38.1570    6.5110   45.8000 P.3       1 FAD501      0.0000 
     51 O1P        39.2500    7.3570   45.1770 O.co2     1 FAD501      0.0000 
     52 O2P        37.6880    5.3620   44.9460 O.co2     1 FAD501      0.0000 
     53 O3P        36.8020    7.3530   46.1060 O.3       1 FAD501      0.0000 
     54 H          34.9584   10.0157   45.5083 H         1 FAD501      0.0000 
     55 H          36.1397    9.7710   44.2103 H         1 FAD501      0.0000 
     56 H          37.1377   12.0067   44.9618 H         1 FAD501      0.0000 
     57 H          35.2029   11.7495   46.9012 H         1 FAD501      0.0000 
     58 H          33.4218   12.5038   45.6995 H         1 FAD501      0.0000 
     59 H          35.1650   14.2087   44.0502 H         1 FAD501      0.0000 
     60 H          32.2595   11.6699   43.7601 H         1 FAD501      0.0000 
     61 H          30.9111   14.6026   38.7356 H         1 FAD501      0.0000 
     62 H          30.2141   13.5272   39.9938 H         1 FAD501      0.0000 
     63 H          34.1770   16.9377   40.6114 H         1 FAD501      0.0000 
     64 H          41.9984    0.8344   55.1501 H         1 FAD501      0.0000 
     65 H          36.7440    4.4023   58.1757 H         1 FAD501      0.0000 
     66 H          35.5295    4.7530   53.5107 H         1 FAD501      0.0000 
     67 H          36.1986    3.5113   52.4234 H         1 FAD501      0.0000 
     68 H          37.4306    2.2737   52.1220 H         1 FAD501      0.0000 
     69 H          39.0855    3.9560   51.6856 H         1 FAD501      0.0000 
     70 H          36.5526    4.5188   50.1805 H         1 FAD501      0.0000 
     71 H          39.4363    4.8540   49.4132 H         1 FAD501      0.0000 
     72 H          36.8747    5.2305   47.9009 H         1 FAD501      0.0000 
     73 H          38.2061    4.1106   47.5641 H         1 FAD501      0.0000 
     74 H          34.9561    6.5140   58.3410 H         1 FAD501      0.0000 
     75 H          33.6876    6.2792   57.3808 H         1 FAD501      0.0000 
     76 H          34.0941    5.1619   58.4637 H         1 FAD501      0.0000 
     77 H          33.8044    6.9764   55.3979 H         1 FAD501      0.0000 
     78 H          33.6197    6.0276   54.1126 H         1 FAD501      0.0000 
     79 H          32.9481    5.6203   55.5159 H         1 FAD501      0.0000 
     80 H          36.6586   13.9369   45.8134 H         1 FAD501      0.0000 
     81 H          34.8196   14.9555   45.7308 H         1 FAD501      0.0000 
     82 H          38.0021    6.1853   51.4039 H         1 FAD501      0.0000 
     83 H          37.2275    2.8948   48.8903 H         1 FAD501      0.0000 
     84 H          38.0120    7.0375   49.0057 H         1 FAD501      0.0000 
@<TRIPOS>BOND
     1    2    1 ar   
     2    3    1 ar   
     3    4    1 1    
     4   53    1 1    
     5    5    4 1    
     6    6    5 1    
     7   54    5 1    
     8   55    5 1    
     9    7    6 1    
    10    8    6 1    
    11   56    6 1    
    12   12    7 1    
    13    9    8 1    
    14   10    8 1    
    15   57    8 1    
    16   80    9 1    
    17   11   10 1    
    18   12   10 1    
    19   58   10 1    
    20   81   11 1    
    21   13   12 1    
    22   59   12 1    
    23   14   13 1    
    24   22   13 1    
    25   15   14 2    
    26   60   14 1    
    27   16   15 1    
    28   17   16 ar   
    29   22   16 ar   
    30   18   17 1    
    31   19   17 ar   
    32   61   18 1    
    33   62   18 1    
    34   20   19 ar   
    35   21   20 ar   
    36   63   20 1    
    37   22   21 ar   
    38   24   23 1    
    39   40   23 2    
    40   25   24 2    
    41   26   24 am   
    42   27   26 am   
    43   64   26 1    
    44   28   27 2    
    45   29   27 1    
    46   30   29 2    
    47   40   29 1    
    48   31   30 1    
    49   32   31 ar   
    50   38   31 ar   
    51   33   32 ar   
    52   65   32 1    
    53   34   33 1    
    54   35   33 ar   
    55   74   34 1    
    56   75   34 1    
    57   76   34 1    
    58   36   35 1    
    59   37   35 ar   
    60   77   36 1    
    61   78   36 1    
    62   79   36 1    
    63   38   37 ar   
    64   66   37 1    
    65   39   38 1    
    66   40   39 1    
    67   41   39 1    
    68   42   41 1    
    69   67   41 1    
    70   68   41 1    
    71   43   42 1    
    72   44   42 1    
    73   69   42 1    
    74   82   43 1    
    75   45   44 1    
    76   46   44 1    
    77   70   44 1    
    78   83   45 1    
    79   47   46 1    
    80   48   46 1    
    81   71   46 1    
    82   84   47 1    
    83   49   48 1    
    84   72   48 1    
    85   73   48 1    
    86   50   49 1    
    87   51   50 ar   
    88   52   50 ar   
    89   53   50 1    
@<TRIPOS>SUBSTRUCTURE
     1 FAD501      1 GROUP   
@<TRIPOS>SET

