#    Name: 4AAY_1_CAVITY_N1_ALL.mol2
#    Modification time : Tue Mar 11 16:53:16 2014

@<TRIPOS>MOLECULE
4AAY_1_CAVITY_N1_ALL.mol2
   66     0     6     0     0
SMALL
NO_CHARGES


@<TRIPOS>ATOM
      1 OG          6.9051  -46.4603   54.8523 O.2       1 SER1        0.0000 
      2 CA         10.2199  -45.9543   54.7749 C.3       5 GLY6        0.0000 
      3 CA          9.3663  -44.7610   55.0867 C.3       5 GLY6        0.0000 
      4 N           4.2175  -45.8909   59.7464 N.2       2 ALA2        0.0000 
      5 CA          6.9885  -46.7828   56.3148 C.3       5 GLY6        0.0000 
      6 OG          6.1349  -45.5895   56.6267 O.2       1 SER1        0.0000 
      7 CZ          5.2812  -44.3962   56.9385 C.ar      4 PHE5        0.0000 
      8 CZ          4.4276  -43.2028   57.2504 C.ar      4 PHE5        0.0000 
      9 CA          3.5739  -42.0095   57.5622 C.3       5 GLY6        0.0000 
     10 CA          7.0555  -42.1486   60.4098 C.3       5 GLY6        0.0000 
     11 O           6.2019  -40.9552   60.7217 O.2       2 ALA2        0.0000 
     12 N           4.9043  -46.4392   56.5095 N.2       2 ALA2        0.0000 
     13 OG          4.0506  -45.2458   56.8213 O.2       1 SER1        0.0000 
     14 CA          3.1970  -44.0525   57.1332 C.3       5 GLY6        0.0000 
     15 N           5.4480  -45.0412   59.8636 N.2       2 ALA2        0.0000 
     16 N           4.5944  -43.8479   60.1754 N.2       2 ALA2        0.0000 
     17 O           3.7407  -42.6546   60.4873 O.2       2 ALA2        0.0000 
     18 O           2.8871  -41.4612   60.7991 O.2       2 ALA2        0.0000 
     19 NZ          9.0564  -42.1697   58.7527 N.2       3 LYS4        0.0000 
     20 CA          8.2027  -40.9764   59.0645 C.3       5 GLY6        0.0000 
     21 CA          5.8250  -42.9982   60.2926 C.3       5 GLY6        0.0000 
     22 O           4.9713  -41.8049   60.6045 O.2       2 ALA2        0.0000 
     23 CA          4.1176  -40.6116   60.9163 C.3       5 GLY6        0.0000 
     24 CA         10.0098  -48.6423   57.2709 C.3       5 GLY6        0.0000 
     25 CA          9.1562  -47.4490   57.5827 C.3       5 GLY6        0.0000 
     26 CA          8.3025  -46.2557   57.8946 C.3       5 GLY6        0.0000 
     27 N           7.4489  -45.0624   58.2064 N.2       2 ALA2        0.0000 
     28 N           6.5952  -43.8690   58.5183 N.2       2 ALA2        0.0000 
     29 CZ          5.7416  -42.6757   58.8301 C.ar      4 PHE5        0.0000 
     30 OG          4.8879  -41.4824   59.1419 O.2       1 SER1        0.0000 
     31 OG          4.0342  -40.2890   59.4538 O.2       1 SER1        0.0000 
     32 OG          8.9060  -46.4814   53.1951 O.2       1 SER1        0.0000 
     33 CA          8.0523  -45.2881   53.5070 C.3       5 GLY6        0.0000 
     34 O           5.0547  -42.1274   62.0670 O.2       2 ALA2        0.0000 
     35 CZ          4.8045  -41.1598   57.6794 C.ar      4 PHE5        0.0000 
     36 OG          8.9894  -46.8040   54.6577 O.2       1 SER1        0.0000 
     37 CZ          8.1357  -45.6106   54.9695 C.ar      4 PHE5        0.0000 
     38 N           4.9877  -46.7617   57.9720 N.2       2 ALA2        0.0000 
     39 N           4.1340  -45.5684   58.2839 N.2       2 ALA2        0.0000 
     40 O           3.2804  -44.3750   58.5957 O.2       2 ALA2        0.0000 
     41 NZ          8.9730  -41.8472   57.2901 N.2       3 LYS4        0.0000 
     42 CA          8.1193  -40.6538   57.6020 C.3       5 GLY6        0.0000 
     43 NZ         11.2404  -47.7927   57.3881 N.2       3 LYS4        0.0000 
     44 CA         10.3867  -46.5993   57.6999 C.3       5 GLY6        0.0000 
     45 CA          9.5331  -45.4060   58.0118 C.3       5 GLY6        0.0000 
     46 CA          8.6794  -44.2127   58.3236 C.3       5 GLY6        0.0000 
     47 N           7.8258  -43.0194   58.6355 N.2       2 ALA2        0.0000 
     48 DU          6.9721  -41.8260   58.9473 H         6 CUB7        0.0000 
     49 OG          6.1185  -40.6327   59.2591 O.2       1 SER1        0.0000 
     50 CA         11.1570  -47.4701   55.9256 C.3       5 GLY6        0.0000 
     51 CA         10.3033  -46.2768   56.2374 C.3       5 GLY6        0.0000 
     52 CA          9.4497  -45.0835   56.5492 C.3       5 GLY6        0.0000 
     53 NZ          8.5960  -43.8902   56.8611 N.2       3 LYS4        0.0000 
     54 CZ          7.7424  -42.6968   57.1729 C.ar      4 PHE5        0.0000 
     55 CZ          6.8887  -41.5035   57.4848 C.ar      4 PHE5        0.0000 
     56 CA          9.9264  -48.3198   55.8084 C.3       5 GLY6        0.0000 
     57 CA          9.0728  -47.1265   56.1202 C.3       5 GLY6        0.0000 
     58 CA          8.2191  -45.9332   56.4320 C.3       5 GLY6        0.0000 
     59 CZ          7.3655  -44.7398   56.7439 C.ar      4 PHE5        0.0000 
     60 CZ          6.5118  -43.5465   57.0557 C.ar      4 PHE5        0.0000 
     61 CA          7.0719  -47.1054   57.7774 C.3       5 GLY6        0.0000 
     62 N           6.2183  -45.9120   58.0892 N.2       2 ALA2        0.0000 
     63 N           5.3646  -44.7187   58.4011 N.2       2 ALA2        0.0000 
     64 O           4.5110  -43.5254   58.7129 O.2       2 ALA2        0.0000 
     65 O           3.6573  -42.3320   59.0247 O.2       2 ALA2        0.0000 
     66 O           2.8037  -41.1387   59.3366 O.2       2 ALA2        0.0000 
@<TRIPOS>BOND
@<TRIPOS>SUBSTRUCTURE
     1 SER1        1 GROUP   
     2 ALA2        4 GROUP   
     3 LYS4       19 GROUP   
     4 PHE5        7 GROUP   
     5 GLY6        2 GROUP   
     6 CUB7       48 GROUP   
@<TRIPOS>SET

