#    Name: 4aay_MGD_1_INTS_M
#    Modification time : Tue Mar 25 05:23:55 2014

@<TRIPOS>MOLECULE
4aay_MGD_1_INTS_M
  107     0     9     0     0
SMALL
NO_CHARGES


@<TRIPOS>ATOM
      1 N           3.1150  -39.7395   57.6450 N.am      2 SEC2        0.0000 
      2 N           4.0250  -40.8220   58.1560 N.am      8 SEL2        0.0000 
      3 N           2.2050  -38.6570   57.1340 N.am      5 SEP2        0.0000 
      4 N           4.5255  -39.6140   58.1420 N.am      2 SEC2        0.0000 
      5 N           5.0260  -38.4060   58.1280 N.am      5 SEP2        0.0000 
      6 N           2.0530  -43.1050   58.9545 N.am      2 SEC2        0.0000 
      7 N           3.3690  -43.2250   59.0090 N.am      8 SEL2        0.0000 
      8 N           0.7370  -42.9850   58.9000 N.am      5 SEP2        0.0000 
      9 N           6.3880  -41.1425   62.7825 N.am      2 SEC2        0.0000 
     10 N           5.0710  -41.3480   62.6380 N.am      8 SEL2        0.0000 
     11 N           7.7050  -40.9370   62.9270 N.am      5 SEP2        0.0000 
     12 N           4.4825  -40.3955   63.3410 N.am      2 SEC2        0.0000 
     13 N           3.8940  -39.4430   64.0440 N.am      5 SEP2        0.0000 
     14 CA          5.6665  -42.8215   56.7830 C.3       3 GLC5        0.0000 
     15 CA          6.2810  -43.2810   58.6420 C.3       9 GLL5        0.0000 
     16 CA          5.0520  -42.3620   54.9240 C.3       6 GLP5        0.0000 
     17 CA          8.8315  -44.5450   59.7400 C.3       3 GLC5        0.0000 
     18 CA          7.7740  -43.1020   58.7430 C.3       9 GLL5        0.0000 
     19 CA          9.8890  -45.9880   60.7370 C.3       6 GLP5        0.0000 
     20 CA          7.5360  -41.3495   56.1880 C.3       3 GLC5        0.0000 
     21 CA          8.2740  -41.9720   57.8380 C.3       9 GLL5        0.0000 
     22 CA          6.7980  -40.7270   54.5380 C.3       6 GLP5        0.0000 
     23 O          10.6875  -41.8955   57.7295 O.2       1 ALC1        0.0000 
     24 O           9.3660  -41.2880   58.4330 O.2       7 ALL1        0.0000 
     25 O          12.0090  -42.5030   57.0260 O.2       4 ALP1        0.0000 
     26 O          10.5040  -41.9265   58.8180 O.2       1 ALC1        0.0000 
     27 O          11.6420  -42.5650   59.2030 O.2       4 ALP1        0.0000 
     28 CA          8.0515  -42.1625   55.1205 C.3       3 GLC5        0.0000 
     29 CA          8.7260  -42.7160   56.6160 C.3       9 GLL5        0.0000 
     30 CA          7.3770  -41.6090   53.6250 C.3       6 GLP5        0.0000 
     31 O          10.8825  -42.2575   56.4855 O.2       1 ALC1        0.0000 
     32 O           9.7560  -42.0120   55.9450 O.2       7 ALL1        0.0000 
     33 CA          9.5640  -44.9945   58.9740 C.3       3 GLC5        0.0000 
     34 CA          9.2390  -44.0010   57.2110 C.3       9 GLL5        0.0000 
     35 CA         11.2360  -46.5685   54.5790 C.3       3 GLC5        0.0000 
     36 CA          9.8080  -47.1460   55.5150 C.3       9 GLL5        0.0000 
     37 CA         12.6640  -45.9910   53.6430 C.3       6 GLP5        0.0000 
     38 CA         10.1235  -47.9265   53.4395 C.3       3 GLC5        0.0000 
     39 CA         10.4390  -48.7070   51.3640 C.3       6 GLP5        0.0000 
     40 N           9.7730  -49.0110   53.2915 N.am      2 SEC2        0.0000 
     41 N          10.4540  -49.2640   54.7110 N.am      8 SEL2        0.0000 
     42 N           9.0920  -48.7580   51.8720 N.am      5 SEP2        0.0000 
     43 O          12.0665  -49.7740   56.7385 O.2       1 ALC1        0.0000 
     44 O          11.5240  -48.4650   56.5700 O.2       7 ALL1        0.0000 
     45 O          12.6090  -51.0830   56.9070 O.2       4 ALP1        0.0000 
     46 O          12.3930  -49.3200   57.6910 O.2       1 ALC1        0.0000 
     47 O          13.2620  -50.1750   58.8120 O.2       4 ALP1        0.0000 
     48 O          13.2000  -46.6635   59.4200 O.2       1 ALC1        0.0000 
     49 O          12.6000  -47.6400   58.4630 O.2       7 ALL1        0.0000 
     50 O          13.8000  -45.6870   60.3770 O.2       4 ALP1        0.0000 
     51 O          12.9310  -48.9075   58.6375 O.2       1 ALC1        0.0000 
     52 CA          9.9765  -46.0705   58.6425 C.3       3 GLC5        0.0000 
     53 CA         10.0640  -46.1530   56.5480 C.3       9 GLL5        0.0000 
     54 CA         10.7460  -45.0060   55.1350 C.3       3 GLC5        0.0000 
     55 CA         11.4280  -43.8590   53.7220 C.3       6 GLP5        0.0000 
     56 CA          1.6820  -44.2215   62.5900 C.3       3 GLC5        0.0000 
     57 CA          1.3520  -42.0800   62.0120 C.3       9 GLL5        0.0000 
     58 CA          2.0120  -46.3630   63.1680 C.3       6 GLP5        0.0000 
     59 CA          2.0105  -40.2360   62.1350 C.3       3 GLC5        0.0000 
     60 CA          2.6690  -38.3920   62.2580 C.3       6 GLP5        0.0000 
     61 CA          1.5100  -40.4605   63.4200 C.3       3 GLC5        0.0000 
     62 CA          0.3160  -42.1930   63.1090 C.3       9 GLL5        0.0000 
     63 CA          2.7040  -38.7280   63.7310 C.3       6 GLP5        0.0000 
     64 CA         -0.5690  -44.6035   63.6495 C.3       3 GLC5        0.0000 
     65 CA         -0.8910  -44.3640   61.7650 C.3       9 GLL5        0.0000 
     66 CA         -0.2470  -44.8430   65.5340 C.3       6 GLP5        0.0000 
     67 CA         -0.4380  -45.7925   60.5545 C.3       3 GLC5        0.0000 
     68 CA          0.0150  -47.2210   59.3440 C.3       6 GLP5        0.0000 
     69 CA         -5.1865  -44.1840   63.9635 C.3       3 GLC5        0.0000 
     70 CA         -3.4030  -43.7140   63.2320 C.3       9 GLL5        0.0000 
     71 CA         -6.9700  -44.6540   64.6950 C.3       6 GLP5        0.0000 
     72 CA         -3.5420  -42.4575   65.5835 C.3       3 GLC5        0.0000 
     73 CA         -2.1730  -41.5540   64.3300 C.3       9 GLL5        0.0000 
     74 CA         -4.9110  -43.3610   66.8370 C.3       6 GLP5        0.0000 
     75 CA         -2.6395  -41.0435   66.2750 C.3       3 GLC5        0.0000 
     76 CA         -3.1060  -40.5330   68.2200 C.3       6 GLP5        0.0000 
     77 N          -6.9725  -38.9235   63.7290 N.am      2 SEC2        0.0000 
     78 N          -5.6320  -39.1840   63.8800 N.am      8 SEL2        0.0000 
     79 N          -8.3130  -38.6630   63.5780 N.am      5 SEP2        0.0000 
     80 O          -5.6510  -36.5860   65.0515 O.2       1 ALC1        0.0000 
     81 O          -4.6420  -37.5130   64.9480 O.2       7 ALL1        0.0000 
     82 O          -6.6600  -35.6590   65.1550 O.2       4 ALP1        0.0000 
     83 O          -5.1375  -35.7125   65.6095 O.2       1 ALC1        0.0000 
     84 O          -3.6150  -35.7660   66.0640 O.2       7 ALL1        0.0000 
     85 O           0.1780  -39.0740   65.6535 O.2       1 ALC1        0.0000 
     86 O          -1.0230  -39.5020   65.0660 O.2       7 ALL1        0.0000 
     87 O           1.3790  -38.6460   66.2410 O.2       4 ALP1        0.0000 
     88 CA          0.9265  -39.7890   64.1580 C.3       3 GLC5        0.0000 
     89 CA         -0.8510  -40.8500   64.5850 C.3       9 GLL5        0.0000 
     90 CA         -1.3770  -40.3775   66.5240 C.3       3 GLC5        0.0000 
     91 CA         -1.9030  -39.9050   68.4630 C.3       6 GLP5        0.0000 
     92 CA          7.4592  -43.2602   60.6377 C.3       3 GLC5        0.0000 
     93 CA          7.8910  -43.3290   62.5830 C.3       6 GLP5        0.0000 
     94 CA         10.2053  -43.6088   55.3177 C.3       3 GLC5        0.0000 
     95 CA          8.7565  -48.0793   56.2362 C.3       3 GLC5        0.0000 
     96 CA          7.5770  -49.5090   56.4410 C.3       6 GLP5        0.0000 
     97 CA         -0.1760  -40.3023   62.0643 C.3       3 GLC5        0.0000 
     98 CA         -1.1860  -38.4680   61.5680 C.3       6 GLP5        0.0000 
     99 CA         -0.2700  -43.7270   64.2448 C.3       3 GLC5        0.0000 
    100 CA          0.5577  -45.0297   62.7257 C.3       3 GLC5        0.0000 
    101 CA         -0.9020  -43.0290   62.8020 C.3       9 GLL5        0.0000 
    102 CA         -1.4863  -44.0328   64.4300 C.3       3 GLC5        0.0000 
    103 CA         -2.0480  -42.7310   63.4200 C.3       9 GLL5        0.0000 
    104 CA         -3.3297  -43.7717   65.1170 C.3       3 GLC5        0.0000 
    105 CA         -3.9340  -44.3210   66.9080 C.3       6 GLP5        0.0000 
    106 CA         -0.8795  -43.0225   64.9958 C.3       3 GLC5        0.0000 
    107 CA         -1.3490  -39.8350   63.0127 C.3       3 GLC5        0.0000 
@<TRIPOS>BOND
@<TRIPOS>SUBSTRUCTURE
     1 ALC1       23 GROUP        1 X    ALC  0     ROOT ALC X 1
     2 SEC2        1 GROUP        1 X    SEC  0     **** SEC X 2
     3 GLC5       14 GROUP        1 X    GLC  0     **** GLC X 6
     4 ALP1       25 GROUP        1 Y    ALP  0     ROOT ALP Y 8
     5 SEP2        3 GROUP        1 Y    SEP  0     **** SEP Y 9
     6 GLP5       16 GROUP        1 Y    GLP  0     **** GLP Y 13
     7 ALL1       24 GROUP        1 Z    ALL  0     ROOT ALL Z 15
     8 SEL2        2 GROUP        1 Z    SEL  0     **** SEL Z 16
     9 GLL5       15 GROUP        1 Z    GLL  0     **** GLL Z 20
@<TRIPOS>SET

