#    Name: 4aay_MGD_1_ligand
#    Modification time : Tue Mar 25 05:23:55 2014

@<TRIPOS>MOLECULE
4aay_MGD_1_ligand
   69    74     1     0     0
SMALL
NO_CHARGES


@<TRIPOS>ATOM
      1 PB          4.1540  -41.9400   59.1650 P.3       1 MGD2001     0.0000 
      2 O1B         4.0250  -40.8220   58.1560 O.co2     1 MGD2001     0.0000 
      3 O2B         3.3690  -43.2250   59.0090 O.co2     1 MGD2001     0.0000 
      4 O3B         3.7300  -41.3090   60.5700 O.3       1 MGD2001     0.0000 
      5 O3A         2.5720  -41.7700   62.6810 O.3       1 MGD2001     0.0000 
      6 PA          3.9600  -42.0790   61.9520 P.3       1 MGD2001     0.0000 
      7 O1A         4.0200  -43.5500   61.6820 O.co2     1 MGD2001     0.0000 
      8 O2A         5.0710  -41.3480   62.6380 O.co2     1 MGD2001     0.0000 
      9 O5'         5.7030  -42.2350   59.3760 O.3       1 MGD2001     0.0000 
     10 C5'         6.2810  -43.2810   58.6420 C.3       1 MGD2001     0.0000 
     11 C4'         7.7740  -43.1020   58.7430 C.3       1 MGD2001     0.0000 
     12 O4'         8.3850  -44.3050   58.3060 O.3       1 MGD2001     0.0000 
     13 C3'         8.2740  -41.9720   57.8380 C.3       1 MGD2001     0.0000 
     14 O3'         9.3660  -41.2880   58.4330 O.3       1 MGD2001     0.0000 
     15 C2'         8.7260  -42.7160   56.6160 C.3       1 MGD2001     0.0000 
     16 O2'         9.7560  -42.0120   55.9450 O.3       1 MGD2001     0.0000 
     17 C1'         9.2390  -44.0010   57.2110 C.3       1 MGD2001     0.0000 
     18 N9          9.2410  -45.1650   56.3160 N.pl3     1 MGD2001     0.0000 
     19 C8          8.4920  -45.4520   55.2290 C.2       1 MGD2001     0.0000 
     20 N7          8.8390  -46.6600   54.7180 N.2       1 MGD2001     0.0000 
     21 C5          9.8080  -47.1460   55.5150 C.2       1 MGD2001     0.0000 
     22 C6         10.6170  -48.3690   55.5780 C.2       1 MGD2001     0.0000 
     23 O6         10.4540  -49.2640   54.7110 O.2       1 MGD2001     0.0000 
     24 N1         11.5240  -48.4650   56.5700 N.am      1 MGD2001     0.0000 
     25 C2         11.7000  -47.4890   57.4820 C.2       1 MGD2001     0.0000 
     26 N2         12.6000  -47.6400   58.4630 N.pl3     1 MGD2001     0.0000 
     27 N3         10.9960  -46.3510   57.4810 N.2       1 MGD2001     0.0000 
     28 C4         10.0640  -46.1530   56.5480 C.2       1 MGD2001     0.0000 
     29 C10         1.3520  -42.0800   62.0120 C.3       1 MGD2001     0.0000 
     30 C11         0.3160  -42.1930   63.1090 C.3       1 MGD2001     0.0000 
     31 O11        -0.0900  -40.8560   63.4000 O.3       1 MGD2001     0.0000 
     32 C12        -0.9020  -43.0290   62.8020 C.2       1 MGD2001     0.0000 
     33 S12        -0.8910  -44.3640   61.7650 S.3       1 MGD2001     0.0000 
     34 C13        -2.0480  -42.7310   63.4200 C.2       1 MGD2001     0.0000 
     35 S13        -3.4030  -43.7140   63.2320 S.3       1 MGD2001     0.0000 
     36 C14        -2.1730  -41.5540   64.3300 C.3       1 MGD2001     0.0000 
     37 N15        -3.2520  -40.6840   63.8810 N.pl3     1 MGD2001     0.0000 
     38 C16        -3.3510  -39.4530   64.3720 C.2       1 MGD2001     0.0000 
     39 C17        -4.6090  -38.7110   64.3900 C.2       1 MGD2001     0.0000 
     40 O17        -5.6320  -39.1840   63.8800 O.2       1 MGD2001     0.0000 
     41 N18        -4.6420  -37.5130   64.9480 N.am      1 MGD2001     0.0000 
     42 C19        -3.5460  -36.9890   65.5020 C.2       1 MGD2001     0.0000 
     43 N19        -3.6150  -35.7660   66.0640 N.pl3     1 MGD2001     0.0000 
     44 N20        -2.3640  -37.6320   65.5520 N.2       1 MGD2001     0.0000 
     45 C21        -2.2020  -38.8510   65.0180 C.2       1 MGD2001     0.0000 
     46 N22        -1.0230  -39.5020   65.0660 N.pl3     1 MGD2001     0.0000 
     47 C23        -0.8510  -40.8500   64.5850 C.3       1 MGD2001     0.0000 
     48 H           6.0063  -43.2508   57.5890 H         1 MGD2001     0.0000 
     49 H           6.0288  -44.2602   59.0453 H         1 MGD2001     0.0000 
     50 H           8.0397  -42.8758   59.7526 H         1 MGD2001     0.0000 
     51 H           7.4560  -41.3607   57.5882 H         1 MGD2001     0.0000 
     52 H           7.8828  -42.9330   56.0192 H         1 MGD2001     0.0000 
     53 H          10.2449  -43.8247   57.5897 H         1 MGD2001     0.0000 
     54 H           7.7967  -44.8727   54.8598 H         1 MGD2001     0.0000 
     55 H          12.1191  -49.3379   56.6349 H         1 MGD2001     0.0000 
     56 H          12.6622  -46.8906   59.1222 H         1 MGD2001     0.0000 
     57 H          13.1289  -48.4885   58.4481 H         1 MGD2001     0.0000 
     58 H           1.4034  -43.0244   61.4911 H         1 MGD2001     0.0000 
     59 H           1.0495  -41.2951   61.3351 H         1 MGD2001     0.0000 
     60 H           0.8127  -42.6053   63.9959 H         1 MGD2001     0.0000 
     61 H          -2.4942  -41.9829   65.3356 H         1 MGD2001     0.0000 
     62 H          -3.9021  -41.0730   63.1883 H         1 MGD2001     0.0000 
     63 H          -5.5395  -36.9613   64.9587 H         1 MGD2001     0.0000 
     64 H          -4.5142  -35.3285   66.0567 H         1 MGD2001     0.0000 
     65 H          -2.7609  -35.4049   66.4383 H         1 MGD2001     0.0000 
     66 H          -0.1692  -39.0410   65.4639 H         1 MGD2001     0.0000 
     67 H          -0.3257  -41.4442   65.3561 H         1 MGD2001     0.0000 
     68 H          10.0484  -41.9967   58.6124 H         1 MGD2001     0.0000 
     69 H          10.4537  -41.8477   56.6423 H         1 MGD2001     0.0000 
@<TRIPOS>BOND
     1    2    1 ar   
     2    3    1 ar   
     3    4    1 1    
     4    9    1 1    
     5    6    4 1    
     6    6    5 1    
     7   29    5 1    
     8    7    6 ar   
     9    8    6 ar   
    10   10    9 1    
    11   11   10 1    
    12   48   10 1    
    13   49   10 1    
    14   12   11 1    
    15   13   11 1    
    16   50   11 1    
    17   17   12 1    
    18   14   13 1    
    19   15   13 1    
    20   51   13 1    
    21   68   14 1    
    22   16   15 1    
    23   17   15 1    
    24   52   15 1    
    25   69   16 1    
    26   18   17 1    
    27   53   17 1    
    28   19   18 1    
    29   28   18 1    
    30   20   19 2    
    31   54   19 1    
    32   21   20 1    
    33   22   21 1    
    34   28   21 2    
    35   23   22 2    
    36   24   22 am   
    37   25   24 1    
    38   55   24 1    
    39   26   25 1    
    40   27   25 2    
    41   56   26 1    
    42   57   26 1    
    43   28   27 1    
    44   30   29 1    
    45   58   29 1    
    46   59   29 1    
    47   31   30 1    
    48   32   30 1    
    49   60   30 1    
    50   47   31 1    
    51   33   32 1    
    52   34   32 2    
    53   35   34 1    
    54   36   34 1    
    55   37   36 1    
    56   47   36 1    
    57   61   36 1    
    58   38   37 1    
    59   62   37 1    
    60   39   38 1    
    61   45   38 2    
    62   40   39 2    
    63   41   39 am   
    64   42   41 1    
    65   63   41 1    
    66   43   42 1    
    67   44   42 2    
    68   64   43 1    
    69   65   43 1    
    70   45   44 1    
    71   46   45 1    
    72   47   46 1    
    73   66   46 1    
    74   67   47 1    
@<TRIPOS>SUBSTRUCTURE
     1 MGD2001     1 GROUP   
@<TRIPOS>SET

