#    Name: 4B1U_1_CAVITY_N1_6.mol2
#    Modification time : Tue Mar 11 18:41:22 2014

@<TRIPOS>MOLECULE
4B1U_1_CAVITY_N1_6.mol2
   75     0     6     0     0
SMALL
NO_CHARGES


@<TRIPOS>ATOM
      1 NZ         15.2831  -25.9009   19.4696 N.2       4 LYS4        0.0000 
      2 NZ         15.1659  -26.8105   18.2826 N.2       4 LYS4        0.0000 
      3 CA         16.1708  -27.7401   18.8958 C.3       5 GLY6        0.0000 
      4 NZ         16.3906  -25.1536   18.7877 N.2       4 LYS4        0.0000 
      5 CA         17.3954  -26.0833   19.4009 C.3       5 GLY6        0.0000 
      6 CA         18.4003  -27.0130   20.0141 C.3       5 GLY6        0.0000 
      7 NZ         16.2735  -26.0632   17.6007 N.2       4 LYS4        0.0000 
      8 CA         17.2783  -26.9929   18.2139 C.3       5 GLY6        0.0000 
      9 CA         17.1611  -27.9024   17.0269 C.3       5 GLY6        0.0000 
     10 OG         17.6153  -23.4968   19.2928 O.2       1 SER1        0.0000 
     11 CA         18.6201  -24.4265   19.9060 C.3       5 GLY6        0.0000 
     12 NZ         17.4981  -24.4064   18.1058 N.2       4 LYS4        0.0000 
     13 CA         18.5030  -25.3361   18.7190 C.3       5 GLY6        0.0000 
     14 NZ         17.3810  -25.3159   16.9188 N.2       4 LYS4        0.0000 
     15 CA         18.3858  -26.2456   17.5320 C.3       5 GLY6        0.0000 
     16 O          17.2638  -26.2255   15.7317 O.2       2 ALA2        0.0000 
     17 CA         18.2686  -27.1552   16.3450 C.3       5 GLY6        0.0000 
     18 NZ         19.1563  -28.9944   15.7712 N.2       4 LYS4        0.0000 
     19 NZ         15.8255  -19.0510   17.9582 N.2       4 LYS4        0.0000 
     20 OG         16.8303  -19.9806   18.5714 O.2       1 SER1        0.0000 
     21 NZ         15.7083  -19.9605   16.7712 N.2       4 LYS4        0.0000 
     22 NZ         16.7131  -20.8902   17.3844 N.2       4 LYS4        0.0000 
     23 OG         17.7180  -21.8199   17.9976 O.2       1 SER1        0.0000 
     24 OG         18.7228  -22.7496   18.6108 O.2       1 SER1        0.0000 
     25 CA         19.7276  -23.6792   19.2240 C.3       5 GLY6        0.0000 
     26 O          16.5960  -21.7998   16.1974 O.2       2 ALA2        0.0000 
     27 NZ         17.6008  -22.7294   16.8106 N.2       4 LYS4        0.0000 
     28 DU         18.6056  -23.6591   17.4238 H         6 CUB7        0.0000 
     29 CA         19.6105  -24.5888   18.0370 C.3       5 GLY6        0.0000 
     30 O          17.4837  -23.6390   15.6236 O.2       2 ALA2        0.0000 
     31 DU         18.4885  -24.5687   16.2368 H         6 CUB7        0.0000 
     32 CA         19.4933  -25.4984   16.8500 C.3       5 GLY6        0.0000 
     33 OD1        17.3665  -24.5486   14.4366 O.3       3 ASP3        0.0000 
     34 CA         18.3713  -25.4782   15.0498 C.3       5 GLY6        0.0000 
     35 CA         19.3762  -26.4079   15.6630 C.3       5 GLY6        0.0000 
     36 O          17.2493  -25.4581   13.2496 O.2       2 ALA2        0.0000 
     37 DU         18.2542  -26.3878   13.8628 H         6 CUB7        0.0000 
     38 NZ         17.9378  -19.2334   17.8895 N.2       4 LYS4        0.0000 
     39 OG         18.9427  -20.1631   18.5027 O.2       1 SER1        0.0000 
     40 NZ         16.8158  -19.2133   16.0893 N.2       4 LYS4        0.0000 
     41 NZ         17.8207  -20.1429   16.7025 N.2       4 LYS4        0.0000 
     42 OG         18.8255  -21.0726   17.3157 O.2       1 SER1        0.0000 
     43 N          19.8303  -22.0023   17.9289 N.2       2 ALA2        0.0000 
     44 N          20.8352  -22.9320   18.5421 N.2       2 ALA2        0.0000 
     45 CA         17.7035  -21.0525   15.5155 C.3       5 GLY6        0.0000 
     46 DU         18.7083  -21.9822   16.1287 H         6 CUB7        0.0000 
     47 N          19.7132  -22.9119   16.7419 N.2       2 ALA2        0.0000 
     48 N          20.7180  -23.8415   17.3551 N.2       2 ALA2        0.0000 
     49 O          18.5912  -22.8917   14.9417 O.2       2 ALA2        0.0000 
     50 CA         19.5960  -23.8214   15.5549 C.3       5 GLY6        0.0000 
     51 CA         17.4692  -22.8716   13.1415 C.3       5 GLY6        0.0000 
     52 O          18.4740  -23.8013   13.7547 O.2       2 ALA2        0.0000 
     53 CA         19.4788  -24.7310   14.3679 C.3       5 GLY6        0.0000 
     54 O          18.3568  -24.7109   12.5677 O.2       2 ALA2        0.0000 
     55 CA         19.3617  -25.6405   13.1809 C.3       5 GLY6        0.0000 
     56 O          17.2348  -24.6908   10.7675 O.2       2 ALA2        0.0000 
     57 O          18.2397  -25.6204   11.3807 O.2       2 ALA2        0.0000 
     58 DU         19.2445  -26.5501   11.9939 H         6 CUB7        0.0000 
     59 NZ         19.9330  -20.3254   16.6338 N.2       4 LYS4        0.0000 
     60 NZ         18.8110  -20.3052   14.8336 N.2       4 LYS4        0.0000 
     61 NZ         19.8158  -21.2349   15.4468 N.2       4 LYS4        0.0000 
     62 N          20.8207  -22.1646   16.0600 N.2       2 ALA2        0.0000 
     63 CA         18.6939  -21.2148   13.6466 C.3       5 GLY6        0.0000 
     64 CA         19.6987  -22.1445   14.2598 C.3       5 GLY6        0.0000 
     65 NZ         18.5767  -22.1244   12.4596 N.2       4 LYS4        0.0000 
     66 CA         19.5815  -23.0540   13.0728 C.3       5 GLY6        0.0000 
     67 NZ         18.4595  -23.0339   11.2726 N.2       4 LYS4        0.0000 
     68 CA         19.4644  -23.9636   11.8858 C.3       5 GLY6        0.0000 
     69 NZ         18.3424  -23.9435   10.0856 N.2       4 LYS4        0.0000 
     70 CA         19.3472  -24.8732   10.6988 C.3       5 GLY6        0.0000 
     71 NZ         18.2252  -24.8531    8.8986 N.2       4 LYS4        0.0000 
     72 CA         19.6842  -21.3771   11.7777 C.3       5 GLY6        0.0000 
     73 CA         19.5670  -22.2867   10.5907 C.3       5 GLY6        0.0000 
     74 OD1        19.4499  -23.1962    9.4037 O.3       3 ASP3        0.0000 
     75 CA         20.4547  -24.1259   10.0169 C.3       5 GLY6        0.0000 
@<TRIPOS>BOND
@<TRIPOS>SUBSTRUCTURE
     1 SER1       10 GROUP   
     2 ALA2       16 GROUP   
     3 ASP3       33 GROUP   
     4 LYS4        1 GROUP   
     5 GLY6        3 GROUP   
     6 CUB7       28 GROUP   
@<TRIPOS>SET

