#    Name: 4b1u_LAB_1_INTS_M
#    Modification time : Tue Mar 25 06:35:22 2014

@<TRIPOS>MOLECULE
4b1u_LAB_1_INTS_M
   66     0     9     0     0
SMALL
NO_CHARGES


@<TRIPOS>ATOM
      1 N          14.8385  -17.1505   14.2410 N.am      2 SEC2        0.0000 
      2 N          15.7970  -17.7480   14.8780 N.am      8 SEL2        0.0000 
      3 N          13.8800  -16.5530   13.6040 N.am      5 SEP2        0.0000 
      4 O          18.4215  -18.0425   15.7645 O.2       1 ALC1        0.0000 
      5 O          17.4440  -18.5130   16.4590 O.2       7 ALL1        0.0000 
      6 O          19.3990  -17.5720   15.0700 O.2       4 ALP1        0.0000 
      7 O          19.0070  -18.1180   16.6755 O.2       1 ALC1        0.0000 
      8 O          20.5700  -17.7230   16.8920 O.2       4 ALP1        0.0000 
      9 CA         18.3785  -19.7630   19.5960 C.3       3 GLC5        0.0000 
     10 CA         17.4040  -19.4760   17.5980 C.3       9 GLL5        0.0000 
     11 CA         19.3530  -20.0500   21.5940 C.3       6 GLP5        0.0000 
     12 CA         16.0510  -17.1630   17.7120 C.3       3 GLC5        0.0000 
     13 CA         14.9300  -18.9500   17.0760 C.3       9 GLL5        0.0000 
     14 CA         17.1720  -15.3760   18.3480 C.3       6 GLP5        0.0000 
     15 CA         13.5030  -17.8670   16.1315 C.3       3 GLC5        0.0000 
     16 CA         12.0760  -16.7840   15.1870 C.3       6 GLP5        0.0000 
     17 CA         15.2245  -20.0725   15.3555 C.3       3 GLC5        0.0000 
     18 CA         15.5190  -21.1950   13.6350 C.3       6 GLP5        0.0000 
     19 O          15.4825  -21.7775   17.4675 O.2       1 ALC1        0.0000 
     20 O          16.6690  -21.5040   16.6480 O.2       7 ALL1        0.0000 
     21 O          14.2960  -22.0510   18.2870 O.2       4 ALP1        0.0000 
     22 CA         20.5830  -24.6370   18.1520 C.3       3 GLC5        0.0000 
     23 CA         19.8610  -22.7980   17.5450 C.3       9 GLL5        0.0000 
     24 CA         21.3050  -26.4760   18.7590 C.3       6 GLP5        0.0000 
     25 N          18.1200  -20.9575   19.6455 N.am      2 SEC2        0.0000 
     26 N          18.0640  -21.6190   18.3710 N.am      8 SEL2        0.0000 
     27 N          18.1760  -20.2960   20.9200 N.am      5 SEP2        0.0000 
     28 CA         20.0595  -24.9640   19.2220 C.3       3 GLC5        0.0000 
     29 CA         18.8140  -23.4520   19.6850 C.3       9 GLL5        0.0000 
     30 CA         18.4195  -21.9515   20.9540 C.3       3 GLC5        0.0000 
     31 CA         17.4860  -23.8530   20.3140 C.3       9 GLL5        0.0000 
     32 CA         15.6565  -27.2370   20.7375 C.3       3 GLC5        0.0000 
     33 CA         15.4670  -25.2940   20.2650 C.3       9 GLL5        0.0000 
     34 CA         15.8460  -29.1800   21.2100 C.3       6 GLP5        0.0000 
     35 CA         18.7905  -26.4220   20.7555 C.3       3 GLC5        0.0000 
     36 CA         17.4670  -26.1080   19.1820 C.3       9 GLL5        0.0000 
     37 CA         20.1140  -26.7360   22.3290 C.3       6 GLP5        0.0000 
     38 CA         20.1605  -25.4660   14.9310 C.3       3 GLC5        0.0000 
     39 CA         18.1540  -26.1490   15.5710 C.3       9 GLL5        0.0000 
     40 CA         22.1670  -24.7830   14.2910 C.3       6 GLP5        0.0000 
     41 CA         20.1220  -24.6760   13.8980 C.3       3 GLC5        0.0000 
     42 CA         18.0770  -24.5690   13.5050 C.3       9 GLL5        0.0000 
     43 CA         16.7980  -22.8820   13.5700 C.3       3 GLC5        0.0000 
     44 CA         16.9582  -17.4067   18.1432 C.3       3 GLC5        0.0000 
     45 CA         14.2718  -18.5598   18.7707 C.3       3 GLC5        0.0000 
     46 CA         16.0850  -19.3990   18.2790 C.3       9 GLL5        0.0000 
     47 CA         13.0360  -17.9450   19.8640 C.3       6 GLP5        0.0000 
     48 CA         16.9275  -21.0535   15.1728 C.3       3 GLC5        0.0000 
     49 CA         17.7620  -20.8940   17.2180 C.3       9 GLL5        0.0000 
     50 CA         20.9543  -23.6613   15.5755 C.3       3 GLC5        0.0000 
     51 CA         19.6220  -22.2810   16.1750 C.3       9 GLL5        0.0000 
     52 CA         21.3347  -21.2814   16.9045 C.3       3 GLC5        0.0000 
     53 CA         23.1060  -20.3610   16.9420 C.3       6 GLP5        0.0000 
     54 CA         19.6930  -23.7818   21.1788 C.3       3 GLC5        0.0000 
     55 CA         21.2360  -23.9110   22.3580 C.3       6 GLP5        0.0000 
     56 CA         19.7825  -21.7561   19.8904 C.3       3 GLC5        0.0000 
     57 CA         20.5460  -20.3650   20.9790 C.3       6 GLP5        0.0000 
     58 CA         14.3493  -24.4173   19.2125 C.3       3 GLC5        0.0000 
     59 CA         16.6720  -24.8590   19.5370 C.3       9 GLL5        0.0000 
     60 CA         12.6290  -23.7580   18.5240 C.3       6 GLP5        0.0000 
     61 CA         19.1340  -27.0718   18.3815 C.3       3 GLC5        0.0000 
     62 CA         20.8150  -27.7390   18.2210 C.3       6 GLP5        0.0000 
     63 CA         16.6495  -27.7922   19.8760 C.3       3 GLC5        0.0000 
     64 CA         17.4390  -26.7010   17.9020 C.3       9 GLL5        0.0000 
     65 CA         19.2163  -26.8920   17.1618 C.3       3 GLC5        0.0000 
     66 CA         17.0810  -25.9410   16.6340 C.3       9 GLL5        0.0000 
@<TRIPOS>BOND
@<TRIPOS>SUBSTRUCTURE
     1 ALC1        4 GROUP        1 X    ALC  0     ROOT ALC X 1
     2 SEC2        1 GROUP        1 X    SEC  0     **** SEC X 2
     3 GLC5        9 GROUP        1 X    GLC  0     **** GLC X 6
     4 ALP1        6 GROUP        1 Y    ALP  0     ROOT ALP Y 8
     5 SEP2        3 GROUP        1 Y    SEP  0     **** SEP Y 9
     6 GLP5       11 GROUP        1 Y    GLP  0     **** GLP Y 13
     7 ALL1        5 GROUP        1 Z    ALL  0     ROOT ALL Z 15
     8 SEL2        2 GROUP        1 Z    SEL  0     **** SEL Z 16
     9 GLL5       10 GROUP        1 Z    GLL  0     **** GLL Z 20
@<TRIPOS>SET

