#    Name: 4b1u_LAB_1_ligand
#    Modification time : Tue Mar 25 06:35:22 2014

@<TRIPOS>MOLECULE
4b1u_LAB_1_ligand
   56    58     1     0     0
SMALL
NO_CHARGES


@<TRIPOS>ATOM
      1 O5         15.7970  -17.7480   14.8780 O.2       1 LAB1376     0.0000 
      2 C18        16.0810  -18.2880   15.9340 C.2       1 LAB1376     0.0000 
      3 N1         17.4440  -18.5130   16.4590 N.am      1 LAB1376     0.0000 
      4 C16        17.4040  -19.4760   17.5980 C.3       1 LAB1376     0.0000 
      5 C17        16.0850  -19.3990   18.2790 C.3       1 LAB1376     0.0000 
      6 S1         14.9300  -18.9500   17.0760 S.3       1 LAB1376     0.0000 
      7 C15        17.7620  -20.8940   17.2180 C.3       1 LAB1376     0.0000 
      8 O4         16.6690  -21.5040   16.6480 O.3       1 LAB1376     0.0000 
      9 C14        18.9100  -20.9300   16.2030 C.3       1 LAB1376     0.0000 
     10 C13        19.6220  -22.2810   16.1750 C.3       1 LAB1376     0.0000 
     11 O2         18.8460  -23.2000   15.4900 O.3       1 LAB1376     0.0000 
     12 C12        19.8610  -22.7980   17.5450 C.3       1 LAB1376     0.0000 
     13 C11        18.5870  -22.8870   18.2920 C.3       1 LAB1376     0.0000 
     14 O3         18.0640  -21.6190   18.3710 O.3       1 LAB1376     0.0000 
     15 C10        18.8140  -23.4520   19.6850 C.3       1 LAB1376     0.0000 
     16 C9         17.4860  -23.8530   20.3140 C.3       1 LAB1376     0.0000 
     17 C8         16.6720  -24.8590   19.5370 C.3       1 LAB1376     0.0000 
     18 C20        15.4670  -25.2940   20.2650 C.3       1 LAB1376     0.0000 
     19 C7         17.4670  -26.1080   19.1820 C.2       1 LAB1376     0.0000 
     20 C6         17.4390  -26.7010   17.9020 C.2       1 LAB1376     0.0000 
     21 C5         17.0810  -25.9410   16.6340 C.3       1 LAB1376     0.0000 
     22 C4         18.1540  -26.1490   15.5710 C.3       1 LAB1376     0.0000 
     23 C3         17.6530  -25.7310   14.1880 C.2       1 LAB1376     0.0000 
     24 C19        16.8050  -26.7180   13.4260 C.3       1 LAB1376     0.0000 
     25 C2         18.0770  -24.5690   13.5050 C.2       1 LAB1376     0.0000 
     26 C1         18.8050  -23.3680   14.1070 C.2       1 LAB1376     0.0000 
     27 O1         19.2400  -22.4650   13.4050 O.2       1 LAB1376     0.0000 
     28 H          18.2149  -18.1179   16.1340 H         1 LAB1376     0.0000 
     29 H          18.1693  -19.1340   18.3426 H         1 LAB1376     0.0000 
     30 H          16.0221  -18.6229   18.9972 H         1 LAB1376     0.0000 
     31 H          15.7350  -20.3335   18.6345 H         1 LAB1376     0.0000 
     32 H          19.6333  -20.1473   16.4556 H         1 LAB1376     0.0000 
     33 H          18.5110  -20.7128   15.2064 H         1 LAB1376     0.0000 
     34 H          20.5827  -22.1345   15.6873 H         1 LAB1376     0.0000 
     35 H          20.5551  -22.1325   18.0735 H         1 LAB1376     0.0000 
     36 H          20.3275  -23.7894   17.4879 H         1 LAB1376     0.0000 
     37 H          17.9244  -23.5629   17.7622 H         1 LAB1376     0.0000 
     38 H          19.2938  -22.6996   20.3068 H         1 LAB1376     0.0000 
     39 H          19.4596  -24.3249   19.6206 H         1 LAB1376     0.0000 
     40 H          16.8770  -22.9350   20.4688 H         1 LAB1376     0.0000 
     41 H          17.6845  -24.2551   21.3321 H         1 LAB1376     0.0000 
     42 H          16.3571  -24.4003   18.5898 H         1 LAB1376     0.0000 
     43 H          18.0360  -26.5029   19.9403 H         1 LAB1376     0.0000 
     44 H          17.6657  -27.6972   17.7729 H         1 LAB1376     0.0000 
     45 H          16.9994  -24.8800   16.8591 H         1 LAB1376     0.0000 
     46 H          16.1261  -26.2987   16.2553 H         1 LAB1376     0.0000 
     47 H          18.4372  -27.2021   15.5454 H         1 LAB1376     0.0000 
     48 H          19.0342  -25.5575   15.8262 H         1 LAB1376     0.0000 
     49 H          17.8917  -24.4806   12.4713 H         1 LAB1376     0.0000 
     50 H          15.6955  -25.7206   21.1401 H         1 LAB1376     0.0000 
     51 H          14.8559  -24.5276   20.4632 H         1 LAB1376     0.0000 
     52 H          14.9384  -25.9627   19.7422 H         1 LAB1376     0.0000 
     53 H          17.2943  -27.5730   13.2540 H         1 LAB1376     0.0000 
     54 H          15.9704  -26.9530   13.9242 H         1 LAB1376     0.0000 
     55 H          16.5238  -26.3573   12.5367 H         1 LAB1376     0.0000 
     56 H          16.0197  -21.6253   17.3988 H         1 LAB1376     0.0000 
@<TRIPOS>BOND
     1    2    1 2    
     2    3    2 am   
     3    6    2 1    
     4    4    3 1    
     5   28    3 1    
     6    5    4 1    
     7    7    4 1    
     8   29    4 1    
     9    6    5 1    
    10   30    5 1    
    11   31    5 1    
    12    8    7 1    
    13    9    7 1    
    14   14    7 1    
    15   56    8 1    
    16   10    9 1    
    17   32    9 1    
    18   33    9 1    
    19   11   10 1    
    20   12   10 1    
    21   34   10 1    
    22   26   11 1    
    23   13   12 1    
    24   35   12 1    
    25   36   12 1    
    26   14   13 1    
    27   15   13 1    
    28   37   13 1    
    29   16   15 1    
    30   38   15 1    
    31   39   15 1    
    32   17   16 1    
    33   40   16 1    
    34   41   16 1    
    35   18   17 1    
    36   19   17 1    
    37   42   17 1    
    38   50   18 1    
    39   51   18 1    
    40   52   18 1    
    41   20   19 2    
    42   43   19 1    
    43   21   20 1    
    44   44   20 1    
    45   22   21 1    
    46   45   21 1    
    47   46   21 1    
    48   23   22 1    
    49   47   22 1    
    50   48   22 1    
    51   24   23 1    
    52   25   23 2    
    53   53   24 1    
    54   54   24 1    
    55   55   24 1    
    56   26   25 1    
    57   49   25 1    
    58   27   26 2    
@<TRIPOS>SUBSTRUCTURE
     1 LAB1376     1 GROUP   
@<TRIPOS>SET

