#    Name: 3FH7_2_CAVITY_N1_6.mol2
#    Modification time : Mon Mar 10 16:21:05 2014

@<TRIPOS>MOLECULE
3FH7_2_CAVITY_N1_6.mol2
   41     0     6     0     0
SMALL
NO_CHARGES


@<TRIPOS>ATOM
      1 CZ         29.8192   77.8609   -0.5783 C.ar      4 PHE5        0.0000 
      2 OG         31.5600   78.5631    0.4101 O.2       1 SER1        0.0000 
      3 CZ         31.0795   77.9499    1.6919 C.ar      4 PHE5        0.0000 
      4 CZ         32.1526   78.5364   -2.8911 C.ar      4 PHE5        0.0000 
      5 OG         31.6721   77.9232   -1.6093 O.2       1 SER1        0.0000 
      6 OG         31.1917   77.3100   -0.3274 O.2       1 SER1        0.0000 
      7 OG         34.7420   81.1050   -2.4471 O.2       1 SER1        0.0000 
      8 OG         34.2616   80.4918   -1.1652 O.2       1 SER1        0.0000 
      9 OG         33.7811   79.8785    0.1166 O.2       1 SER1        0.0000 
     10 CZ         33.3007   79.2653    1.3985 C.ar      4 PHE5        0.0000 
     11 CZ         32.8202   78.6521    2.6803 C.ar      4 PHE5        0.0000 
     12 CZ         34.3737   79.8518   -3.1846 C.ar      4 PHE5        0.0000 
     13 OG         33.8933   79.2386   -1.9028 O.2       1 SER1        0.0000 
     14 OG         33.4128   78.6254   -0.6209 O.2       1 SER1        0.0000 
     15 OG         32.9324   78.0122    0.6609 O.2       1 SER1        0.0000 
     16 CA         32.4519   77.3989    1.9428 C.3       5 GLY6        0.0000 
     17 CZ         34.4859   79.2119   -5.2040 C.ar      4 PHE5        0.0000 
     18 CZ         34.0054   78.5987   -3.9222 C.ar      4 PHE5        0.0000 
     19 CZ         33.5250   77.9855   -2.6403 C.ar      4 PHE5        0.0000 
     20 DU         33.0445   77.3722   -1.3585 H         6 CUB7        0.0000 
     21 CA         32.5641   76.7590   -0.0766 C.3       5 GLY6        0.0000 
     22 CZ         34.1176   77.9587   -5.9415 C.ar      4 PHE5        0.0000 
     23 CZ         33.6371   77.3455   -4.6597 C.ar      4 PHE5        0.0000 
     24 NZ         36.1144   80.5540   -2.1963 N.2       3 LYS4        0.0000 
     25 O          35.6340   79.9408   -0.9144 O.2       2 ALA2        0.0000 
     26 O          35.1535   79.3276    0.3674 O.2       2 ALA2        0.0000 
     27 CA         35.7461   79.3009   -2.9338 C.3       5 GLY6        0.0000 
     28 DU         35.2657   78.6876   -1.6520 H         6 CUB7        0.0000 
     29 O          34.7852   78.0744   -0.3701 O.2       2 ALA2        0.0000 
     30 O          34.3048   77.4612    0.9117 O.2       2 ALA2        0.0000 
     31 O          35.8583   78.6609   -4.9532 O.2       2 ALA2        0.0000 
     32 DU         35.3778   78.0477   -3.6713 H         6 CUB7        0.0000 
     33 DU         34.8974   77.4345   -2.3895 H         6 CUB7        0.0000 
     34 O          34.4169   76.8213   -1.1076 O.2       2 ALA2        0.0000 
     35 O          37.0064   79.3898   -0.6636 O.2       2 ALA2        0.0000 
     36 NZ         37.1186   78.7499   -2.6830 N.2       3 LYS4        0.0000 
     37 CA         36.6381   78.1367   -1.4011 C.3       5 GLY6        0.0000 
     38 CA         36.1577   77.5235   -0.1193 C.3       5 GLY6        0.0000 
     39 CA         37.2307   78.1100   -4.7024 C.3       5 GLY6        0.0000 
     40 CA         36.7503   77.4967   -3.4205 C.3       5 GLY6        0.0000 
     41 CA         36.2698   76.8835   -2.1387 C.3       5 GLY6        0.0000 
@<TRIPOS>BOND
@<TRIPOS>SUBSTRUCTURE
     1 SER1        2 GROUP   
     2 ALA2       25 GROUP   
     3 LYS4       24 GROUP   
     4 PHE5        1 GROUP   
     5 GLY6       16 GROUP   
     6 CUB7       20 GROUP   
@<TRIPOS>SET

