#    Name: 3fh7_25P_2_INTS_M
#    Modification time : Tue Mar 25 04:07:04 2014

@<TRIPOS>MOLECULE
3fh7_25P_2_INTS_M
   82     0     9     0     0
SMALL
NO_CHARGES


@<TRIPOS>ATOM
      1 CA         24.5400   89.3335   -2.8560 C.3       3 GLC5        0.0000 
      2 CA         24.5860   87.3330   -2.8990 C.3       9 GLL5        0.0000 
      3 CA         24.4940   91.3340   -2.8130 C.3       6 GLP5        0.0000 
      4 CA         25.2165   85.0130   -4.9510 C.3       3 GLC5        0.0000 
      5 CA         23.0740   84.5200   -5.2140 C.3       9 GLL5        0.0000 
      6 CA         27.3590   85.5060   -4.6880 C.3       6 GLP5        0.0000 
      7 CA         21.7120   85.7480   -5.3975 C.3       3 GLC5        0.0000 
      8 CA         20.3500   86.9760   -5.5810 C.3       6 GLP5        0.0000 
      9 CA         24.3035   87.6450   -0.0660 C.3       3 GLC5        0.0000 
     10 CA         24.8440   86.6230   -1.7370 C.3       9 GLL5        0.0000 
     11 CA         23.7630   88.6670    1.6050 C.3       6 GLP5        0.0000 
     12 CA         25.4755   85.8540    2.7640 C.3       3 GLC5        0.0000 
     13 CA         26.6650   86.6090    1.1210 C.3       9 GLL5        0.0000 
     14 CA         24.2860   85.0990    4.4070 C.3       6 GLP5        0.0000 
     15 CA         31.3585   87.2960    0.5190 C.3       3 GLC5        0.0000 
     16 CA         31.1990   85.3340    0.6580 C.3       9 GLL5        0.0000 
     17 CA         31.5180   89.2580    0.3800 C.3       6 GLP5        0.0000 
     18 CA         30.1520   83.8325   -0.0505 C.3       3 GLC5        0.0000 
     19 CA         29.1050   82.3310   -0.7590 C.3       6 GLP5        0.0000 
     20 CA         32.5410   87.5645    2.1420 C.3       3 GLC5        0.0000 
     21 CA         32.7380   85.7800    2.6020 C.3       9 GLL5        0.0000 
     22 CA         32.3440   89.3490    1.6820 C.3       6 GLP5        0.0000 
     23 CA         32.2930   84.4975    3.7580 C.3       3 GLC5        0.0000 
     24 CA         31.8480   83.2150    4.9140 C.3       6 GLP5        0.0000 
     25 CA         33.5895   83.8905    3.8180 C.3       3 GLC5        0.0000 
     26 CA         34.0700   85.1580    2.9390 C.3       9 GLL5        0.0000 
     27 CA         33.1090   82.6230    4.6970 C.3       6 GLP5        0.0000 
     28 CA         33.8645   83.0445    2.6950 C.3       3 GLC5        0.0000 
     29 CA         34.4490   84.4730    1.6470 C.3       9 GLL5        0.0000 
     30 CA         33.2800   81.6160    3.7430 C.3       6 GLP5        0.0000 
     31 CA         31.1330   82.9980   -0.4955 C.3       3 GLC5        0.0000 
     32 CA         33.1610   83.6650   -0.2320 C.3       9 GLL5        0.0000 
     33 CA         31.7035   81.7095   -0.4170 C.3       3 GLC5        0.0000 
     34 CA         33.8160   82.3290   -0.4970 C.3       9 GLL5        0.0000 
     35 CA         29.5910   81.0900   -0.3370 C.3       6 GLP5        0.0000 
     36 CA         32.5275   81.8005   -2.2170 C.3       3 GLC5        0.0000 
     37 CA         31.2390   81.2720   -3.9370 C.3       6 GLP5        0.0000 
     38 Zn         34.5015   83.1060   -4.0955 Zn        2 ZIC7        0.0000 
     39 Zn         34.1680   82.7770   -3.1800 Zn        8 ZIL7        0.0000 
     40 Zn         34.8350   83.4350   -5.0110 Zn        5 ZIP7        0.0000 
     41 N          32.9110   82.4005   -3.0045 N.am      1 SEC2        0.0000 
     42 N          34.1680   82.7770   -3.1800 N.am      7 SEL2        0.0000 
     43 N          31.6540   82.0240   -2.8290 N.am      4 SEP2        0.0000 
     44 Zn         35.5165   83.5450   -3.9470 Zn        2 ZIC7        0.0000 
     45 Zn         36.1980   83.6550   -2.8830 Zn        8 ZIL7        0.0000 
     46 N          37.5830   83.7980   -2.6835 N.am      1 SEC2        0.0000 
     47 N          36.1980   83.6550   -2.8830 N.am      7 SEL2        0.0000 
     48 N          38.9680   83.9410   -2.4840 N.am      4 SEP2        0.0000 
     49 CA         22.1150   86.4825   -4.7500 C.3       3 GLC5        0.0000 
     50 CA         24.0210   86.6650   -3.9770 C.3       9 GLL5        0.0000 
     51 CA         25.2646   86.8710   -4.7357 C.3       3 GLC5        0.0000 
     52 CA         23.7390   85.3130   -3.8610 C.3       9 GLL5        0.0000 
     53 CA         26.5080   87.5860   -5.8220 C.3       6 GLP5        0.0000 
     54 CA         22.4565   84.6713   -1.2575 C.3       3 GLC5        0.0000 
     55 CA         23.9910   84.5890   -2.7020 C.3       9 GLL5        0.0000 
     56 CA         20.6440   84.4200   -0.3550 C.3       6 GLP5        0.0000 
     57 CA         24.4355   83.5232   -1.0590 C.3       3 GLC5        0.0000 
     58 CA         24.6020   82.1240    0.0420 C.3       6 GLP5        0.0000 
     59 CA         24.8404   83.5109   -4.7709 C.3       3 GLC5        0.0000 
     60 CA         25.9820   82.2690   -5.9220 C.3       6 GLP5        0.0000 
     61 CA         23.0964   88.0625   -2.5213 C.3       3 GLC5        0.0000 
     62 CA         21.6190   89.3140   -2.4550 C.3       6 GLP5        0.0000 
     63 CA         27.3180   88.5985    0.3297 C.3       3 GLC5        0.0000 
     64 CA         26.5830   86.9350   -0.2250 C.3       9 GLL5        0.0000 
     65 CA         27.4790   90.2600    1.2870 C.3       6 GLP5        0.0000 
     66 CA         25.1935   87.7195    1.0265 C.3       3 GLC5        0.0000 
     67 CA         30.2615   87.8350    0.3040 C.3       3 GLC5        0.0000 
     68 CA         29.0440   86.2410    0.9070 C.3       9 GLL5        0.0000 
     69 CA         28.2420   88.3360    0.7575 C.3       3 GLC5        0.0000 
     70 CA         28.9660   86.5830   -0.4510 C.3       9 GLL5        0.0000 
     71 CA         27.3780   88.3487    1.3490 C.3       3 GLC5        0.0000 
     72 CA         27.8890   86.2660    1.7010 C.3       9 GLL5        0.0000 
     73 CA         26.4985   84.4472    1.2225 C.3       3 GLC5        0.0000 
     74 CA         25.7200   82.4570    1.0340 C.3       6 GLP5        0.0000 
     75 CA         31.1992   83.9050    2.6850 C.3       3 GLC5        0.0000 
     76 CA         30.7590   82.7860    4.1720 C.3       6 GLP5        0.0000 
     77 CA         33.7045   86.2380    4.5248 C.3       3 GLC5        0.0000 
     78 CA         34.0050   87.0070    6.2790 C.3       6 GLP5        0.0000 
     79 CA         34.9877   86.1095    1.7059 C.3       3 GLC5        0.0000 
     80 CA         36.0490   87.2480    1.2030 C.3       6 GLP5        0.0000 
     81 CA         32.8283   82.0995    1.3222 C.3       3 GLC5        0.0000 
     82 CA         32.1680   81.2020    3.0090 C.3       6 GLP5        0.0000 
@<TRIPOS>BOND
@<TRIPOS>SUBSTRUCTURE
     1 SEC2       41 GROUP        1 X    SEC  0     ROOT SEC X 2
     2 ZIC7       38 GROUP        1 X    ZIC  0     **** ZIC X 5
     3 GLC5        1 GROUP        1 X    GLC  0     **** GLC X 6
     4 SEP2       43 GROUP        1 Y    SEP  0     ROOT SEP Y 9
     5 ZIP7       40 GROUP        1 Y    ZIP  0     **** ZIP Y 12
     6 GLP5        3 GROUP        1 Y    GLP  0     **** GLP Y 13
     7 SEL2       42 GROUP        1 Z    SEL  0     ROOT SEL Z 16
     8 ZIL7       39 GROUP        1 Z    ZIL  0     **** ZIL Z 19
     9 GLL5        2 GROUP        1 Z    GLL  0     **** GLL Z 20
@<TRIPOS>SET

