#    Name: 3fh7_25P_2_ligand
#    Modification time : Tue Mar 25 04:07:04 2014

@<TRIPOS>MOLECULE
3fh7_25P_2_ligand
   51    53     1     0     0
SMALL
NO_CHARGES


@<TRIPOS>ATOM
      1 CAD        24.5860   87.3330   -2.8990 C.ar      1 25P612      0.0000 
      2 CAC        24.0210   86.6650   -3.9770 C.ar      1 25P612      0.0000 
      3 CAB        23.7390   85.3130   -3.8610 C.ar      1 25P612      0.0000 
      4 CLAG       23.0740   84.5200   -5.2140 Cl        1 25P612      0.0000 
      5 CAA        23.9910   84.5890   -2.7020 C.ar      1 25P612      0.0000 
      6 CAF        24.5470   85.2560   -1.6180 C.ar      1 25P612      0.0000 
      7 CAE        24.8440   86.6230   -1.7370 C.ar      1 25P612      0.0000 
      8 OAH        25.3730   87.3030   -0.7060 O.3       1 25P612      0.0000 
      9 CAI        26.5830   86.9350   -0.2250 C.ar      1 25P612      0.0000 
     10 CAN        27.7310   86.9390   -1.0300 C.ar      1 25P612      0.0000 
     11 CAM        28.9660   86.5830   -0.4510 C.ar      1 25P612      0.0000 
     12 CAJ        26.6650   86.6090    1.1210 C.ar      1 25P612      0.0000 
     13 CAK        27.8890   86.2660    1.7010 C.ar      1 25P612      0.0000 
     14 CAL        29.0440   86.2410    0.9070 C.ar      1 25P612      0.0000 
     15 OAO        30.2150   85.8980    1.5100 O.3       1 25P612      0.0000 
     16 CAP        31.1990   85.3340    0.6580 C.3       1 25P612      0.0000 
     17 CAQ        32.0800   84.7140    1.7380 C.3       1 25P612      0.0000 
     18 CAR        32.7380   85.7800    2.6020 C.3       1 25P612      0.0000 
     19 CAS        34.0700   85.1580    2.9390 C.3       1 25P612      0.0000 
     20 CAT        34.4490   84.4730    1.6470 C.3       1 25P612      0.0000 
     21 NAU        33.1830   83.8610    1.2130 N.4       1 25P612      0.0000 
     22 CAV        33.1610   83.6650   -0.2320 C.3       1 25P612      0.0000 
     23 CAW        33.8160   82.3290   -0.4970 C.3       1 25P612      0.0000 
     24 CAX        35.2170   82.5700   -1.0570 C.3       1 25P612      0.0000 
     25 CAY        35.1820   83.0630   -2.4900 C.2       1 25P612      0.0000 
     26 OBA        34.1680   82.7770   -3.1800 O.co2     1 25P612      0.0000 
     27 OAZ        36.1980   83.6550   -2.8830 O.co2     1 25P612      0.0000 
     28 H          24.8066   88.3272   -2.9620 H         1 25P612      0.0000 
     29 H          23.8157   87.1656   -4.8459 H         1 25P612      0.0000 
     30 H          23.7740   83.5973   -2.6492 H         1 25P612      0.0000 
     31 H          24.7395   84.7656   -0.7446 H         1 25P612      0.0000 
     32 H          27.6775   87.1927   -2.0106 H         1 25P612      0.0000 
     33 H          29.8135   86.5749   -1.0307 H         1 25P612      0.0000 
     34 H          25.8128   86.6187    1.7055 H         1 25P612      0.0000 
     35 H          27.9439   86.0353    2.6942 H         1 25P612      0.0000 
     36 H          31.7620   86.0602    0.1446 H         1 25P612      0.0000 
     37 H          30.8218   84.5612    0.0510 H         1 25P612      0.0000 
     38 H          31.4562   84.1085    2.4000 H         1 25P612      0.0000 
     39 H          32.1686   85.9280    3.4826 H         1 25P612      0.0000 
     40 H          32.8783   86.6634    2.0349 H         1 25P612      0.0000 
     41 H          33.9526   84.4399    3.7095 H         1 25P612      0.0000 
     42 H          34.7769   85.9130    3.1703 H         1 25P612      0.0000 
     43 H          35.1862   83.7288    1.8433 H         1 25P612      0.0000 
     44 H          34.7826   85.2014    0.9441 H         1 25P612      0.0000 
     45 H          33.1084   82.8789    1.7174 H         1 25P612      0.0000 
     46 H          33.7228   84.4379   -0.7382 H         1 25P612      0.0000 
     47 H          32.1467   83.6389   -0.6059 H         1 25P612      0.0000 
     48 H          33.2350   81.7718   -1.2200 H         1 25P612      0.0000 
     49 H          33.8932   81.7681    0.4252 H         1 25P612      0.0000 
     50 H          35.7854   81.6347   -1.0075 H         1 25P612      0.0000 
     51 H          35.7282   83.3090   -0.4301 H         1 25P612      0.0000 
@<TRIPOS>BOND
     1    2    1 ar   
     2    7    1 ar   
     3   28    1 1    
     4    3    2 ar   
     5   29    2 1    
     6    4    3 1    
     7    5    3 ar   
     8    6    5 ar   
     9   30    5 1    
    10    7    6 ar   
    11   31    6 1    
    12    8    7 1    
    13    9    8 1    
    14   10    9 ar   
    15   12    9 ar   
    16   11   10 ar   
    17   32   10 1    
    18   14   11 ar   
    19   33   11 1    
    20   13   12 ar   
    21   34   12 1    
    22   14   13 ar   
    23   35   13 1    
    24   15   14 1    
    25   16   15 1    
    26   17   16 1    
    27   36   16 1    
    28   37   16 1    
    29   18   17 1    
    30   21   17 1    
    31   38   17 1    
    32   19   18 1    
    33   39   18 1    
    34   40   18 1    
    35   20   19 1    
    36   41   19 1    
    37   42   19 1    
    38   21   20 1    
    39   43   20 1    
    40   44   20 1    
    41   22   21 1    
    42   45   21 1    
    43   23   22 1    
    44   46   22 1    
    45   47   22 1    
    46   24   23 1    
    47   48   23 1    
    48   49   23 1    
    49   25   24 1    
    50   50   24 1    
    51   51   24 1    
    52   26   25 ar   
    53   27   25 ar   
@<TRIPOS>SUBSTRUCTURE
     1 25P612      1 GROUP   
@<TRIPOS>SET

