#    Name: 3vyf_VYF_1_INTS_M
#    Modification time : Tue Mar 25 01:51:09 2014

@<TRIPOS>MOLECULE
3vyf_VYF_1_INTS_M
   72     0     9     0     0
SMALL
NO_CHARGES


@<TRIPOS>ATOM
      1 CA        181.1805  204.6045  100.3800 C.3       3 GLC5        0.0000 
      2 CA        179.4540  203.5470  100.4220 C.3       9 GLL5        0.0000 
      3 CA        182.9070  205.6620  100.3380 C.3       6 GLP5        0.0000 
      4 CA        179.2730  204.0665   96.4725 C.3       3 GLC5        0.0000 
      5 CA        178.6080  203.2680   98.1940 C.3       9 GLL5        0.0000 
      6 CA        179.9380  204.8650   94.7510 C.3       6 GLP5        0.0000 
      7 CA        177.5390  204.6070   97.0290 C.3       3 GLC5        0.0000 
      8 CA        176.4700  205.9460   95.8640 C.3       6 GLP5        0.0000 
      9 CA        178.2095  198.1300   93.9950 C.3       3 GLC5        0.0000 
     10 CA        178.0870  199.3410   95.4370 C.3       9 GLL5        0.0000 
     11 CA        178.3320  196.9190   92.5530 C.3       6 GLP5        0.0000 
     12 N         174.5050  199.1720   98.1060 N.am      2 SEC2        0.0000 
     13 N         174.8700  199.8560   97.0530 N.am      8 SEL2        0.0000 
     14 N         174.1400  198.4880   99.1590 N.am      5 SEP2        0.0000 
     15 CA        179.7290  197.7055   98.8185 C.3       3 GLC5        0.0000 
     16 CA        179.5060  198.9670   97.4550 C.3       9 GLL5        0.0000 
     17 CA        179.9520  196.4440  100.1820 C.3       6 GLP5        0.0000 
     18 CA        180.9190  198.2015   96.0805 C.3       3 GLC5        0.0000 
     19 CA        182.3320  197.4360   94.7060 C.3       6 GLP5        0.0000 
     20 CA        180.8325  200.4365   94.0885 C.3       3 GLC5        0.0000 
     21 CA        180.1380  200.7160   95.7870 C.3       9 GLL5        0.0000 
     22 CA        181.5270  200.1570   92.3900 C.3       6 GLP5        0.0000 
     23 CA        181.6485  201.8125   95.9795 C.3       3 GLC5        0.0000 
     24 CA        183.1590  202.9090   96.1720 C.3       6 GLP5        0.0000 
     25 CA        182.0080  200.0335   95.5415 C.3       3 GLC5        0.0000 
     26 CA        183.8780  199.3510   95.2960 C.3       6 GLP5        0.0000 
     27 CA        180.0380  202.7905   95.2690 C.3       3 GLC5        0.0000 
     28 CA        173.3600  195.8305   95.0070 C.3       3 GLC5        0.0000 
     29 CA        174.5960  197.0330   93.6150 C.3       9 GLL5        0.0000 
     30 CA        172.1240  194.6280   96.3990 C.3       6 GLP5        0.0000 
     31 CA        175.3495  195.6510   92.2530 C.3       3 GLC5        0.0000 
     32 CA        176.1030  194.2690   90.8910 C.3       6 GLP5        0.0000 
     33 CA        174.5680  196.3255   91.2910 C.3       3 GLC5        0.0000 
     34 CA        174.1000  197.9240   92.6710 C.3       9 GLL5        0.0000 
     35 CA        175.0360  194.7270   89.9110 C.3       6 GLP5        0.0000 
     36 CA        174.7040  195.3765   96.4905 C.3       3 GLC5        0.0000 
     37 CA        176.0490  196.3930   95.7740 C.3       9 GLL5        0.0000 
     38 CA        173.3590  194.3600   97.2070 C.3       6 GLP5        0.0000 
     39 CA        177.0485  194.9795   95.9200 C.3       3 GLC5        0.0000 
     40 CA        178.0480  193.5660   96.0660 C.3       6 GLP5        0.0000 
     41 CA        177.1905  196.6560   94.1635 C.3       3 GLC5        0.0000 
     42 N         177.6655  200.1555  102.8490 N.am      2 SEC2        0.0000 
     43 N         178.7440  200.8760  102.2710 N.am      8 SEL2        0.0000 
     44 N         176.5870  199.4350  103.4270 N.am      5 SEP2        0.0000 
     45 O         181.7900  202.9885  102.4170 O.2       1 ALC1        0.0000 
     46 O         180.6510  202.0050  102.8020 O.2       7 ALL1        0.0000 
     47 O         182.9290  203.9720  102.0320 O.2       4 ALP1        0.0000 
     48 CA        179.4950  199.7455  103.6755 C.3       3 GLC5        0.0000 
     49 CA        180.5520  201.5850  104.1890 C.3       9 GLL5        0.0000 
     50 CA        178.4380  197.9060  103.1620 C.3       6 GLP5        0.0000 
     51 CA        181.0380  199.3580  102.7380 C.3       3 GLC5        0.0000 
     52 CA        181.2660  200.2400  104.3790 C.3       9 GLL5        0.0000 
     53 CA        180.8100  198.4760  101.0970 C.3       6 GLP5        0.0000 
     54 CA        180.5170  206.7685  104.2520 C.3       3 GLC5        0.0000 
     55 CA        181.0950  205.2050  105.5240 C.3       9 GLL5        0.0000 
     56 CA        179.9390  208.3320  102.9800 C.3       6 GLP5        0.0000 
     57 CA        180.9905  206.7595  106.7340 C.3       3 GLC5        0.0000 
     58 CA        180.8860  208.3140  107.9440 C.3       6 GLP5        0.0000 
     59 CA        178.1490  205.0340  106.6595 C.3       3 GLC5        0.0000 
     60 CA        178.8760  203.9850  105.2710 C.3       9 GLL5        0.0000 
     61 CA        177.4220  206.0830  108.0480 C.3       6 GLP5        0.0000 
     62 CA        184.6225  198.3280  106.1545 C.3       3 GLC5        0.0000 
     63 CA        183.2750  199.0320  105.3630 C.3       9 GLL5        0.0000 
     64 CA        185.9700  197.6240  106.9460 C.3       6 GLP5        0.0000 
     65 CA        184.0150  201.2260  102.2195 C.3       3 GLC5        0.0000 
     66 CA        183.6260  201.0770  103.8950 C.3       9 GLL5        0.0000 
     67 CA        184.4040  201.3750  100.5440 C.3       6 GLP5        0.0000 
     68 CA        180.1592  200.0517  100.5657 C.3       3 GLC5        0.0000 
     69 CA        179.8850  202.0820  100.5240 C.3       9 GLL5        0.0000 
     70 CA        174.6695  199.5535   91.0083 C.3       3 GLC5        0.0000 
     71 CA        174.4440  199.2740   92.7400 C.3       9 GLL5        0.0000 
     72 CA        175.0670  200.5080   89.3110 C.3       6 GLP5        0.0000 
@<TRIPOS>BOND
@<TRIPOS>SUBSTRUCTURE
     1 ALC1       45 GROUP        1 X    ALC  0     ROOT ALC X 1
     2 SEC2       12 GROUP        1 X    SEC  0     **** SEC X 2
     3 GLC5        1 GROUP        1 X    GLC  0     **** GLC X 6
     4 ALP1       47 GROUP        1 Y    ALP  0     ROOT ALP Y 8
     5 SEP2       14 GROUP        1 Y    SEP  0     **** SEP Y 9
     6 GLP5        3 GROUP        1 Y    GLP  0     **** GLP Y 13
     7 ALL1       46 GROUP        1 Z    ALL  0     ROOT ALL Z 15
     8 SEL2       13 GROUP        1 Z    SEL  0     **** SEL Z 16
     9 GLL5        2 GROUP        1 Z    GLL  0     **** GLL Z 20
@<TRIPOS>SET

