#    Name: 3vyf_VYF_1_ligand
#    Modification time : Tue Mar 25 01:51:09 2014

@<TRIPOS>MOLECULE
3vyf_VYF_1_ligand
   77    79     1     0     0
SMALL
NO_CHARGES


@<TRIPOS>ATOM
      1 C1        179.8850  202.0820  100.5240 C.3       1 VYF402      0.0000 
      2 C2        179.4540  203.5470  100.4220 C.3       1 VYF402      0.0000 
      3 N3        179.4900  204.0490   99.0530 N.3       1 VYF402      0.0000 
      4 C4        178.6080  203.2680   98.1940 C.3       1 VYF402      0.0000 
      5 C5        179.0040  201.7930   98.1480 C.3       1 VYF402      0.0000 
      6 C6        179.1320  201.1730   99.5450 C.3       1 VYF402      0.0000 
      7 N7        178.1850  201.0140   97.2100 N.4       1 VYF402      0.0000 
      8 C8        177.0670  200.3720   97.8600 C.3       1 VYF402      0.0000 
      9 C9        176.0720  199.8370   96.8320 C.2       1 VYF402      0.0000 
     10 N10       176.6240  199.3500   95.6740 N.am      1 VYF402      0.0000 
     11 C11       178.0870  199.3410   95.4370 C.3       1 VYF402      0.0000 
     12 C12       178.9670  200.0260   96.4880 C.3       1 VYF402      0.0000 
     13 O13       174.8700  199.8560   97.0530 O.2       1 VYF402      0.0000 
     14 C14       179.5060  198.9670   97.4550 C.3       1 VYF402      0.0000 
     15 C15       180.1380  200.7160   95.7870 C.3       1 VYF402      0.0000 
     16 C16       175.7860  198.8470   94.6910 C.ar      1 VYF402      0.0000 
     17 C17       175.4350  197.5080   94.6050 C.ar      1 VYF402      0.0000 
     18 C18       174.5960  197.0330   93.6150 C.ar      1 VYF402      0.0000 
     19 C19       174.1000  197.9240   92.6710 C.ar      1 VYF402      0.0000 
     20 C20       174.4440  199.2740   92.7400 C.ar      1 VYF402      0.0000 
     21 C21       175.2910  199.7360   93.7460 C.ar      1 VYF402      0.0000 
     22 CL1       176.0490  196.3930   95.7740 Cl        1 VYF402      0.0000 
     23 C23       179.6900  201.5850  101.9580 C.2       1 VYF402      0.0000 
     24 O24       178.7440  200.8760  102.2710 O.2       1 VYF402      0.0000 
     25 N25       180.6510  202.0050  102.8020 N.am      1 VYF402      0.0000 
     26 C26       180.5520  201.5850  104.1890 C.3       1 VYF402      0.0000 
     27 C27       181.2660  200.2400  104.3790 C.3       1 VYF402      0.0000 
     28 C28       181.0680  202.6920  105.1090 C.3       1 VYF402      0.0000 
     29 C29       180.3550  204.0290  104.8870 C.3       1 VYF402      0.0000 
     30 C30       181.0950  205.2050  105.5240 C.3       1 VYF402      0.0000 
     31 C31       178.8760  203.9850  105.2710 C.3       1 VYF402      0.0000 
     32 C32       182.7050  200.3670  104.8860 C.3       1 VYF402      0.0000 
     33 C33       183.2750  199.0320  105.3630 C.3       1 VYF402      0.0000 
     34 C34       183.6260  201.0770  103.8950 C.3       1 VYF402      0.0000 
     35 H         180.9498  202.0220  100.2968 H         1 VYF402      0.0000 
     36 H         180.1175  204.1418  101.0742 H         1 VYF402      0.0000 
     37 H         178.4365  203.6312  100.8428 H         1 VYF402      0.0000 
     38 H         178.6224  203.6567   97.1621 H         1 VYF402      0.0000 
     39 H         177.5646  203.3295   98.5456 H         1 VYF402      0.0000 
     40 H         180.0717  201.7941   97.7287 H         1 VYF402      0.0000 
     41 H         178.1308  200.9739   99.9404 H         1 VYF402      0.0000 
     42 H         179.6614  200.2182   99.4648 H         1 VYF402      0.0000 
     43 H         177.7711  201.7281   96.4533 H         1 VYF402      0.0000 
     44 H         176.5313  201.0727   98.5158 H         1 VYF402      0.0000 
     45 H         177.3982  199.5277   98.4808 H         1 VYF402      0.0000 
     46 H         178.3107  199.8136   94.4457 H         1 VYF402      0.0000 
     47 H         178.4446  198.2841   95.3304 H         1 VYF402      0.0000 
     48 H         174.3424  196.0437   93.5747 H         1 VYF402      0.0000 
     49 H         173.4805  197.5911   91.9222 H         1 VYF402      0.0000 
     50 H         174.0695  199.9334   92.0429 H         1 VYF402      0.0000 
     51 H         175.5462  200.7289   93.7861 H         1 VYF402      0.0000 
     52 H         181.4279  202.5879  102.5320 H         1 VYF402      0.0000 
     53 H         179.4871  201.4249  104.4326 H         1 VYF402      0.0000 
     54 H         181.2714  199.7019  103.4183 H         1 VYF402      0.0000 
     55 H         180.6888  199.6288  105.0902 H         1 VYF402      0.0000 
     56 H         182.1428  202.8281  104.9383 H         1 VYF402      0.0000 
     57 H         180.9313  202.3836  106.1526 H         1 VYF402      0.0000 
     58 H         180.3817  204.2130  103.7710 H         1 VYF402      0.0000 
     59 H         182.6565  201.0290  105.7994 H         1 VYF402      0.0000 
     60 H         180.0457  198.2714   96.9808 H         1 VYF402      0.0000 
     61 H         180.0963  199.3692   98.1549 H         1 VYF402      0.0000 
     62 H         178.7680  198.4902   97.9326 H         1 VYF402      0.0000 
     63 H         180.7396  201.1793   96.4377 H         1 VYF402      0.0000 
     64 H         180.7019  200.0654   95.2784 H         1 VYF402      0.0000 
     65 H         179.8256  201.4060   95.1341 H         1 VYF402      0.0000 
     66 H         182.0169  205.3097  105.1509 H         1 VYF402      0.0000 
     67 H         180.6174  206.0704  105.3724 H         1 VYF402      0.0000 
     68 H         181.1901  205.0921  106.5130 H         1 VYF402      0.0000 
     69 H         178.7494  203.7526  106.2354 H         1 VYF402      0.0000 
     70 H         178.4268  204.8656  105.1203 H         1 VYF402      0.0000 
     71 H         178.3738  203.3047  104.7372 H         1 VYF402      0.0000 
     72 H         184.2138  199.1262  105.6943 H         1 VYF402      0.0000 
     73 H         182.7372  198.6450  106.1120 H         1 VYF402      0.0000 
     74 H         183.2896  198.3514  104.6305 H         1 VYF402      0.0000 
     75 H         184.5596  201.1537  104.2450 H         1 VYF402      0.0000 
     76 H         183.6790  200.5904  103.0230 H         1 VYF402      0.0000 
     77 H         183.3111  202.0047  103.6943 H         1 VYF402      0.0000 
@<TRIPOS>BOND
     1    2    1 1    
     2    6    1 1    
     3   23    1 1    
     4   35    1 1    
     5    3    2 1    
     6   36    2 1    
     7   37    2 1    
     8    4    3 1    
     9    5    4 1    
    10   38    4 1    
    11   39    4 1    
    12    6    5 1    
    13    7    5 1    
    14   40    5 1    
    15   41    6 1    
    16   42    6 1    
    17    8    7 1    
    18   12    7 1    
    19   43    7 1    
    20    9    8 1    
    21   44    8 1    
    22   45    8 1    
    23   10    9 am   
    24   13    9 2    
    25   11   10 1    
    26   16   10 1    
    27   12   11 1    
    28   46   11 1    
    29   47   11 1    
    30   14   12 1    
    31   15   12 1    
    32   60   14 1    
    33   61   14 1    
    34   62   14 1    
    35   63   15 1    
    36   64   15 1    
    37   65   15 1    
    38   17   16 ar   
    39   21   16 ar   
    40   18   17 ar   
    41   22   17 1    
    42   19   18 ar   
    43   48   18 1    
    44   20   19 ar   
    45   49   19 1    
    46   21   20 ar   
    47   50   20 1    
    48   51   21 1    
    49   24   23 2    
    50   25   23 am   
    51   26   25 1    
    52   52   25 1    
    53   27   26 1    
    54   28   26 1    
    55   53   26 1    
    56   32   27 1    
    57   54   27 1    
    58   55   27 1    
    59   29   28 1    
    60   56   28 1    
    61   57   28 1    
    62   30   29 1    
    63   31   29 1    
    64   58   29 1    
    65   66   30 1    
    66   67   30 1    
    67   68   30 1    
    68   69   31 1    
    69   70   31 1    
    70   71   31 1    
    71   33   32 1    
    72   34   32 1    
    73   59   32 1    
    74   72   33 1    
    75   73   33 1    
    76   74   33 1    
    77   75   34 1    
    78   76   34 1    
    79   77   34 1    
@<TRIPOS>SUBSTRUCTURE
     1 VYF402      1 GROUP   
@<TRIPOS>SET

