#    Name: 3lfc_Z86_1_INTS_M
#    Modification time : Mon Mar 24 21:35:27 2014

@<TRIPOS>MOLECULE
3lfc_Z86_1_INTS_M
   99     0    12     0     0
SMALL
NO_CHARGES


@<TRIPOS>ATOM
      1 CA         12.3790   -8.8560  -19.5185 C.3       4 GLC5        0.0000 
      2 CA         13.8270   -7.5540  -18.5830 C.3      12 GLL5        0.0000 
      3 CA         10.9310  -10.1580  -20.4540 C.3       8 GLP5        0.0000 
      4 CA         12.2600   -6.7460  -19.7520 C.3       4 GLC5        0.0000 
      5 CA         10.6930   -5.9380  -20.9210 C.3       8 GLP5        0.0000 
      6 CA         14.1725   -5.8475  -19.4750 C.3       4 GLC5        0.0000 
      7 CA         14.5180   -4.1410  -20.3670 C.3       8 GLP5        0.0000 
      8 CA         15.9395  -11.1855  -19.7285 C.3       4 GLC5        0.0000 
      9 CA         15.1780   -9.6460  -18.9940 C.3      12 GLL5        0.0000 
     10 CA         16.7010  -12.7250  -20.4630 C.3       8 GLP5        0.0000 
     11 CA         14.8010   -9.9195  -20.8100 C.3       4 GLC5        0.0000 
     12 CA         14.4240  -10.1930  -22.6260 C.3       8 GLP5        0.0000 
     13 CA         15.2715  -10.5165  -16.0060 C.3       4 GLC5        0.0000 
     14 CA         13.8210   -9.4060  -16.9040 C.3      12 GLL5        0.0000 
     15 CA         16.7220  -11.6270  -15.1080 C.3       8 GLP5        0.0000 
     16 CA         12.8720  -11.1115  -15.8350 C.3       4 GLC5        0.0000 
     17 CA         11.9230  -12.8170  -14.7660 C.3       8 GLP5        0.0000 
     18 NZ         17.4270   -8.6830  -10.3100 N.4       3 LYC4        0.0000 
     19 NZ         18.4640   -8.0160   -9.4660 N.4      11 LYL4        0.0000 
     20 NZ         16.0820  -10.6430  -11.1890 N.4       7 LYP4        0.0000 
     21 N          17.4270   -8.6830  -10.3100 N.am      2 SEC2        0.0000 
     22 N          18.4640   -8.0160   -9.4660 N.am     10 SEL2        0.0000 
     23 N          16.3900   -9.3500  -11.1540 N.am      6 SEP2        0.0000 
     24 N          16.3250   -4.1220  -18.0855 N.am      2 SEC2        0.0000 
     25 N          17.5140   -4.4390  -18.1250 N.am     10 SEL2        0.0000 
     26 N          15.1360   -3.8050  -18.0460 N.am      6 SEP2        0.0000 
     27 CA         22.4730   -6.2625  -19.8820 C.3       4 GLC5        0.0000 
     28 CA         23.1300   -4.4420  -20.8000 C.3      12 GLL5        0.0000 
     29 CA         21.8160   -8.0830  -18.9640 C.3       8 GLP5        0.0000 
     30 CA         26.9185   -2.1410  -22.1795 C.3       4 GLC5        0.0000 
     31 CA         25.0150   -3.2200  -21.6900 C.3      12 GLL5        0.0000 
     32 CA         28.8220   -1.0620  -22.6690 C.3       8 GLP5        0.0000 
     33 CA         24.0520   -4.0620  -23.5035 C.3       4 GLC5        0.0000 
     34 CA         23.0890   -4.9040  -25.3170 C.3       8 GLP5        0.0000 
     35 CA         24.5865   -0.7945  -22.9790 C.3       4 GLC5        0.0000 
     36 CA         24.3730   -2.0040  -21.4370 C.3      12 GLL5        0.0000 
     37 CA         24.8000    0.4150  -24.5210 C.3       8 GLP5        0.0000 
     38 CA         18.1380   -3.8610  -12.3695 C.3       4 GLC5        0.0000 
     39 CA         18.8180   -5.8550  -12.8860 C.3      12 GLL5        0.0000 
     40 CA         17.4580   -1.8670  -11.8530 C.3       8 GLP5        0.0000 
     41 CA         20.5015   -9.0860  -13.3825 C.3       4 GLC5        0.0000 
     42 CA         18.9840   -8.2660  -12.7740 C.3      12 GLL5        0.0000 
     43 CA         22.0190   -9.9060  -13.9910 C.3       8 GLP5        0.0000 
     44 CA         17.5105   -9.9975  -14.5455 C.3       4 GLC5        0.0000 
     45 CA         18.2990   -8.3680  -13.9830 C.3      12 GLL5        0.0000 
     46 CA         17.2405   -0.6750  -19.8075 C.3       4 GLC5        0.0000 
     47 CA         19.3530   -0.5040  -19.1450 C.3      12 GLL5        0.0000 
     48 CA         15.1280   -0.8460  -20.4700 C.3       8 GLP5        0.0000 
     49 CA         17.2410   -6.9535  -19.8350 C.3       4 GLC5        0.0000 
     50 CA         16.7700   -7.2270  -17.9170 C.3      12 GLL5        0.0000 
     51 CA         17.7120   -6.6800  -21.7530 C.3       8 GLP5        0.0000 
     52 CA         20.0105    1.8510  -17.8385 C.3       4 GLC5        0.0000 
     53 CA         21.2710    0.5180  -17.8820 C.3      12 GLL5        0.0000 
     54 CA         18.7500    3.1840  -17.7950 C.3       8 GLP5        0.0000 
     55 CA         20.9330   -6.6240   -9.3485 C.3       4 GLC5        0.0000 
     56 CA         20.0140   -6.9370  -10.9060 C.3      12 GLL5        0.0000 
     57 CA         21.8520   -6.3110   -7.7910 C.3       8 GLP5        0.0000 
     58 CA         21.3015   -7.7160  -12.4060 C.3       4 GLC5        0.0000 
     59 CA         22.5890   -8.4950  -13.9060 C.3       8 GLP5        0.0000 
     60 O          20.6885   -4.6545  -16.5145 O.2       1 ALC1        0.0000 
     61 O          19.6530   -4.0430  -17.6830 O.2       9 ALL1        0.0000 
     62 O          21.7240   -5.2660  -15.3460 O.2       5 ALP1        0.0000 
     63 CA         19.2365   -3.4225  -20.8930 C.3       4 GLC5        0.0000 
     64 CA         18.6230   -2.0080  -19.2610 C.3      12 GLL5        0.0000 
     65 CA         19.8500   -4.8370  -22.5250 C.3       8 GLP5        0.0000 
     66 CA         17.1350   -2.6435  -20.1050 C.3       4 GLC5        0.0000 
     67 CA         15.6470   -3.2790  -20.9490 C.3       8 GLP5        0.0000 
     68 CA         14.5075   -6.4467  -17.0408 C.3       4 GLC5        0.0000 
     69 CA         14.7640   -4.7850  -15.8230 C.3       8 GLP5        0.0000 
     70 CA         25.8975   -5.1420  -20.5410 C.3       4 GLC5        0.0000 
     71 CA         24.4010   -4.4380  -21.3740 C.3      12 GLL5        0.0000 
     72 CA         27.0870   -6.4550  -19.5500 C.3       8 GLP5        0.0000 
     73 CA         26.1450   -4.5425  -22.7680 C.3       4 GLC5        0.0000 
     74 CA         27.5820   -5.2560  -24.0040 C.3       8 GLP5        0.0000 
     75 CA         23.3453   -5.3035  -22.8230 C.3       4 GLC5        0.0000 
     76 CA         22.9250   -6.1670  -24.5590 C.3       8 GLP5        0.0000 
     77 CA         21.3278   -4.3365  -21.5993 C.3       4 GLC5        0.0000 
     78 CA         19.0018   -9.8650  -12.1528 C.3       4 GLC5        0.0000 
     79 CA         19.3620  -11.4130  -10.9270 C.3       8 GLP5        0.0000 
     80 CA         16.3800   -5.6870  -15.0987 C.3       4 GLC5        0.0000 
     81 CA         17.8650   -7.2180  -14.6500 C.3      12 GLL5        0.0000 
     82 CA         20.0205   -7.6785  -14.6058 C.3       4 GLC5        0.0000 
     83 CA         21.9590   -7.5640  -14.8950 C.3       8 GLP5        0.0000 
     84 CA         18.3798   -0.4870  -17.0415 C.3       4 GLC5        0.0000 
     85 CA         20.3420   -0.6300  -18.2470 C.3      12 GLL5        0.0000 
     86 CA         16.9120   -0.4070  -15.3870 C.3       8 GLP5        0.0000 
     87 CA         18.4117   -8.0143  -18.5468 C.3       4 GLC5        0.0000 
     88 CA         17.6350   -6.8580  -16.9840 C.3      12 GLL5        0.0000 
     89 CA         19.6210   -8.9860  -19.6430 C.3       8 GLP5        0.0000 
     90 CA         15.9832   -5.9138  -16.6367 C.3       4 GLC5        0.0000 
     91 CA         23.6475    1.3240  -18.3212 C.3       4 GLC5        0.0000 
     92 CA         25.3150    2.3280  -18.5350 C.3       8 GLP5        0.0000 
     93 CA         25.2045   -1.9495  -19.8626 C.3       4 GLC5        0.0000 
     94 CA         23.1020   -2.0160  -20.8590 C.3      12 GLL5        0.0000 
     95 CA         26.5110   -1.5850  -18.5140 C.3       8 GLP5        0.0000 
     96 CA         20.4084   -7.0119  -13.8761 C.3       4 GLC5        0.0000 
     97 CA         18.1270   -5.9600  -14.0990 C.3      12 GLL5        0.0000 
     98 CA         22.5780   -0.9275  -17.0676 C.3       4 GLC5        0.0000 
     99 CA         23.9950   -1.7000  -15.9580 C.3       8 GLP5        0.0000 
@<TRIPOS>BOND
@<TRIPOS>SUBSTRUCTURE
     1 ALC1       60 GROUP        1 X    ALC  0     ROOT ALC X 1
     2 SEC2       21 GROUP        1 X    SEC  0     **** SEC X 2
     3 LYC4       18 GROUP        1 X    LYC  0     **** LYC X 4
     4 GLC5        1 GROUP        1 X    GLC  0     **** GLC X 6
     5 ALP1       62 GROUP        1 Y    ALP  0     ROOT ALP Y 8
     6 SEP2       23 GROUP        1 Y    SEP  0     **** SEP Y 9
     7 LYP4       20 GROUP        1 Y    LYP  0     **** LYP Y 11
     8 GLP5        3 GROUP        1 Y    GLP  0     **** GLP Y 13
     9 ALL1       61 GROUP        1 Z    ALL  0     ROOT ALL Z 15
    10 SEL2       22 GROUP        1 Z    SEL  0     **** SEL Z 16
    11 LYL4       19 GROUP        1 Z    LYL  0     **** LYL Z 18
    12 GLL5        2 GROUP        1 Z    GLL  0     **** GLL Z 20
@<TRIPOS>SET

