#    Name: 3lfc_Z86_1_ligand
#    Modification time : Mon Mar 24 21:35:28 2014

@<TRIPOS>MOLECULE
3lfc_Z86_1_ligand
   68    71     1     0     0
SMALL
NO_CHARGES


@<TRIPOS>ATOM
      1 CAA        13.8270   -7.5540  -18.5830 C.3       1 Z86361      0.0000 
      2 CAB        15.1780   -9.6460  -18.9940 C.3       1 Z86361      0.0000 
      3 CAC        13.8210   -9.4060  -16.9040 C.3       1 Z86361      0.0000 
      4 OAD        18.4640   -8.0160   -9.4660 O.co2     1 Z86361      0.0000 
      5 OAE        17.5140   -4.4390  -18.1250 O.2       1 Z86361      0.0000 
      6 OAF        19.0310   -5.8850   -9.0490 O.co2     1 Z86361      0.0000 
      7 CAG        24.4010   -4.4380  -21.3740 C.ar      1 Z86361      0.0000 
      8 CAH        23.1300   -4.4420  -20.8000 C.ar      1 Z86361      0.0000 
      9 CAI        25.0150   -3.2200  -21.6900 C.ar      1 Z86361      0.0000 
     10 CAJ        22.4810   -3.2300  -20.5470 C.ar      1 Z86361      0.0000 
     11 CAK        24.3730   -2.0040  -21.4370 C.ar      1 Z86361      0.0000 
     12 CAL        18.8180   -5.8550  -12.8860 C.ar      1 Z86361      0.0000 
     13 CAM        18.9840   -8.2660  -12.7740 C.ar      1 Z86361      0.0000 
     14 CAN        18.1270   -5.9600  -14.0990 C.ar      1 Z86361      0.0000 
     15 CAO        18.2990   -8.3680  -13.9830 C.ar      1 Z86361      0.0000 
     16 CAP        19.3530   -0.5040  -19.1450 C.2       1 Z86361      0.0000 
     17 CAQ        16.7700   -7.2270  -17.9170 C.2       1 Z86361      0.0000 
     18 CAR        22.6890    0.1220  -18.3330 C.3       1 Z86361      0.0000 
     19 CAS        21.2710    0.5180  -17.8820 C.3       1 Z86361      0.0000 
     20 CAT        22.4370   -0.8270  -20.6110 C.3       1 Z86361      0.0000 
     21 CAU        20.0140   -6.9370  -10.9060 C.3       1 Z86361      0.0000 
     22 NAV        20.4980   -1.8620  -17.7080 N.2       1 Z86361      0.0000 
     23 NAW        16.2080   -8.0550  -15.9800 N.2       1 Z86361      0.0000 
     24 NAX        18.6960   -6.0520  -17.1280 N.am      1 Z86361      0.0000 
     25 NAY        19.6530   -4.0430  -17.6830 N.am      1 Z86361      0.0000 
     26 OAZ        22.9840    0.2260  -19.7580 O.3       1 Z86361      0.0000 
     27 SBA        18.6230   -2.0080  -19.2610 S.3       1 Z86361      0.0000 
     28 CBB        19.0820   -6.9490   -9.7080 C.2       1 Z86361      0.0000 
     29 CBC        18.5740   -4.8250  -17.6520 C.2       1 Z86361      0.0000 
     30 CBD        23.1020   -2.0160  -20.8590 C.ar      1 Z86361      0.0000 
     31 CBE        19.2430   -7.0120  -12.2220 C.ar      1 Z86361      0.0000 
     32 CBF        20.3420   -0.6300  -18.2470 C.2       1 Z86361      0.0000 
     33 CBG        17.8650   -7.2180  -14.6500 C.ar      1 Z86361      0.0000 
     34 CBH        15.8850   -7.9860  -17.2710 C.2       1 Z86361      0.0000 
     35 CBI        17.6350   -6.8580  -16.9840 C.2       1 Z86361      0.0000 
     36 CBJ        19.6470   -2.7830  -18.1420 C.2       1 Z86361      0.0000 
     37 NBK        17.2240   -7.3660  -15.8160 N.pl3     1 Z86361      0.0000 
     38 CBL        14.6750   -8.6630  -17.9340 C.3       1 Z86361      0.0000 
     39 H          24.8847   -5.3199  -21.5643 H         1 Z86361      0.0000 
     40 H          22.6731   -5.3277  -20.5644 H         1 Z86361      0.0000 
     41 H          25.9552   -3.2207  -22.1159 H         1 Z86361      0.0000 
     42 H          21.5413   -3.2304  -20.1290 H         1 Z86361      0.0000 
     43 H          24.8269   -1.1219  -21.6714 H         1 Z86361      0.0000 
     44 H          19.0125   -4.9326  -12.4846 H         1 Z86361      0.0000 
     45 H          19.2987   -9.1151  -12.2885 H         1 Z86361      0.0000 
     46 H          17.8127   -5.1120  -14.5838 H         1 Z86361      0.0000 
     47 H          18.1101   -9.2946  -14.3897 H         1 Z86361      0.0000 
     48 H          19.0057    0.1459  -19.6677 H         1 Z86361      0.0000 
     49 H          16.7748   -7.0037  -18.8400 H         1 Z86361      0.0000 
     50 H          22.8695   -0.9262  -17.9739 H         1 Z86361      0.0000 
     51 H          23.4106    0.7448  -17.7399 H         1 Z86361      0.0000 
     52 H          20.9721    1.4095  -18.4004 H         1 Z86361      0.0000 
     53 H          21.2679    0.6673  -16.8187 H         1 Z86361      0.0000 
     54 H          22.1503   -0.3223  -21.6225 H         1 Z86361      0.0000 
     55 H          21.3647   -1.0555  -20.2135 H         1 Z86361      0.0000 
     56 H          20.6967   -7.7891  -10.8436 H         1 Z86361      0.0000 
     57 H          20.6098   -6.0200  -10.8935 H         1 Z86361      0.0000 
     58 H          19.6467   -6.3908  -16.8224 H         1 Z86361      0.0000 
     59 H          20.5799   -4.4409  -17.3212 H         1 Z86361      0.0000 
     60 H          14.3506   -7.0322  -19.2565 H         1 Z86361      0.0000 
     61 H          13.0287   -7.9260  -19.0567 H         1 Z86361      0.0000 
     62 H          13.4880   -6.9012  -17.9056 H         1 Z86361      0.0000 
     63 H          15.7434   -9.1922  -19.6828 H         1 Z86361      0.0000 
     64 H          15.7336  -10.3737  -18.5918 H         1 Z86361      0.0000 
     65 H          14.4232  -10.0876  -19.4790 H         1 Z86361      0.0000 
     66 H          14.3346  -10.1357  -16.4527 H         1 Z86361      0.0000 
     67 H          13.4889   -8.7941  -16.1862 H         1 Z86361      0.0000 
     68 H          13.0178   -9.8291  -17.3233 H         1 Z86361      0.0000 
@<TRIPOS>BOND
     1   38    1 1    
     2   60    1 1    
     3   61    1 1    
     4   62    1 1    
     5   38    2 1    
     6   63    2 1    
     7   64    2 1    
     8   65    2 1    
     9   38    3 1    
    10   66    3 1    
    11   67    3 1    
    12   68    3 1    
    13   28    4 ar   
    14   29    5 2    
    15   28    6 ar   
    16    8    7 ar   
    17    9    7 ar   
    18   39    7 1    
    19   10    8 ar   
    20   40    8 1    
    21   11    9 ar   
    22   41    9 1    
    23   30   10 ar   
    24   42   10 1    
    25   30   11 ar   
    26   43   11 1    
    27   14   12 ar   
    28   31   12 ar   
    29   44   12 1    
    30   15   13 ar   
    31   31   13 ar   
    32   45   13 1    
    33   33   14 ar   
    34   46   14 1    
    35   33   15 ar   
    36   47   15 1    
    37   27   16 1    
    38   32   16 2    
    39   48   16 1    
    40   34   17 1    
    41   35   17 2    
    42   49   17 1    
    43   19   18 1    
    44   26   18 1    
    45   50   18 1    
    46   51   18 1    
    47   32   19 1    
    48   52   19 1    
    49   53   19 1    
    50   26   20 1    
    51   30   20 1    
    52   54   20 1    
    53   55   20 1    
    54   28   21 1    
    55   31   21 1    
    56   56   21 1    
    57   57   21 1    
    58   32   22 1    
    59   36   22 2    
    60   34   23 2    
    61   37   23 1    
    62   29   24 am   
    63   35   24 1    
    64   58   24 1    
    65   29   25 am   
    66   36   25 1    
    67   59   25 1    
    68   36   27 1    
    69   37   33 1    
    70   38   34 1    
    71   37   35 1    
@<TRIPOS>SUBSTRUCTURE
     1 Z86361      1 GROUP   
@<TRIPOS>SET

