#    Name: 2xjg_XJG_1_INTS_M
#    Modification time : Tue Mar 25 06:05:46 2014

@<TRIPOS>MOLECULE
2xjg_XJG_1_INTS_M
   68     0     9     0     0
SMALL
NO_CHARGES


@<TRIPOS>ATOM
      1 CA         15.2710    0.2600    8.9165 C.3       3 GLC5        0.0000 
      2 CA         14.0990   -1.2060    8.9180 C.3       9 GLL5        0.0000 
      3 CA         16.4430    1.7260    8.9150 C.3       6 GLP5        0.0000 
      4 CA         16.7055   -1.8495   11.0285 C.3       3 GLC5        0.0000 
      5 CA         14.7110   -1.0830   11.3320 C.3       9 GLL5        0.0000 
      6 CA         18.7000   -2.6160   10.7250 C.3       6 GLP5        0.0000 
      7 CA         16.1795    0.2665   11.2175 C.3       3 GLC5        0.0000 
      8 CA         17.6480    1.6160   11.1030 C.3       6 GLP5        0.0000 
      9 CA         16.1095   -1.1130   12.7010 C.3       3 GLC5        0.0000 
     10 CA         17.5080   -1.1430   14.0700 C.3       6 GLP5        0.0000 
     11 CA         14.0660   -1.8920   13.0695 C.3       3 GLC5        0.0000 
     12 CA         13.4210   -2.7010   14.8070 C.3       6 GLP5        0.0000 
     13 N          17.7310   -6.1415   10.7750 N.am      2 SEC2        0.0000 
     14 N          17.5030   -6.0330    9.4770 N.am      8 SEL2        0.0000 
     15 N          17.9590   -6.2500   12.0730 N.am      5 SEP2        0.0000 
     16 CA         18.8460   -5.1220    7.7305 C.3       3 GLC5        0.0000 
     17 CA         17.5350   -6.4160    6.6740 C.3       9 GLL5        0.0000 
     18 CA         20.1570   -3.8280    8.7870 C.3       6 GLP5        0.0000 
     19 CA         13.2915   -4.9000    7.3655 C.3       3 GLC5        0.0000 
     20 CA         15.3490   -5.3330    6.6450 C.3       9 GLL5        0.0000 
     21 CA         11.2340   -4.4670    8.0860 C.3       6 GLP5        0.0000 
     22 O          14.9600   -8.8235   11.3125 O.2       1 ALC1        0.0000 
     23 O          14.6810   -7.4160   10.3600 O.2       7 ALL1        0.0000 
     24 O          15.2390  -10.2310   12.2650 O.2       4 ALP1        0.0000 
     25 O          14.1705   -8.0395   11.3485 O.2       1 ALC1        0.0000 
     26 O          13.6600   -8.6630   12.3370 O.2       4 ALP1        0.0000 
     27 CA         13.3095   -3.4450   12.9385 C.3       3 GLC5        0.0000 
     28 CA         13.1980   -4.1890   11.0700 C.3       9 GLL5        0.0000 
     29 CA          9.4760   -4.1080   11.9110 C.3       3 GLC5        0.0000 
     30 CA         11.3330   -4.5470   12.5150 C.3       9 GLL5        0.0000 
     31 CA          7.6190   -3.6690   11.3070 C.3       6 GLP5        0.0000 
     32 CA         11.2835   -4.5070   10.3005 C.3       3 GLC5        0.0000 
     33 CA         10.7420   -4.7565   14.1440 C.3       3 GLC5        0.0000 
     34 CA         10.1510   -4.9660   15.7730 C.3       6 GLP5        0.0000 
     35 CA         12.3770   -3.6240   13.6610 C.3       3 GLC5        0.0000 
     36 CA         12.6007   -2.9820    8.8500 C.3       3 GLC5        0.0000 
     37 CA         13.8360   -1.7880   10.3100 C.3       9 GLL5        0.0000 
     38 CA         13.3561    0.2405   10.7360 C.3       3 GLC5        0.0000 
     39 CA         12.3730    1.7710   10.9990 C.3       6 GLP5        0.0000 
     40 CA         12.9055   -4.0200    9.0312 C.3       3 GLC5        0.0000 
     41 CA         14.0460   -3.2980   10.3390 C.3       9 GLL5        0.0000 
     42 CA         15.6370   -4.1490   11.6928 C.3       3 GLC5        0.0000 
     43 CA         16.6970   -4.7250   13.4090 C.3       6 GLP5        0.0000 
     44 CA         16.9610   -3.5755   10.1670 C.3       3 GLC5        0.0000 
     45 CA         15.1080   -3.8480    9.6140 C.3       9 GLL5        0.0000 
     46 CA         13.0747   -5.0560    9.0305 C.3       3 GLC5        0.0000 
     47 CA         15.3360   -5.2220    9.6040 C.3       9 GLL5        0.0000 
     48 CA         15.1963   -7.4110    8.9365 C.3       3 GLC5        0.0000 
     49 CA         14.4950   -6.0680   10.3460 C.3       9 GLL5        0.0000 
     50 CA         15.4770   -9.1770    7.8980 C.3       6 GLP5        0.0000 
     51 CA         15.9463   -5.9055   11.5440 C.3       3 GLC5        0.0000 
     52 CA         16.9770   -6.1660   13.1130 C.3       6 GLP5        0.0000 
     53 CA         16.0572   -8.6777    5.1240 C.3       3 GLC5        0.0000 
     54 CA         17.3110   -7.3450    4.2310 C.3       9 GLL5        0.0000 
     55 CA         15.2050   -9.9640    6.5810 C.3       6 GLP5        0.0000 
     56 CA         17.4982   -9.0998    3.1020 C.3       3 GLC5        0.0000 
     57 CA         18.0870  -10.8080    2.5370 C.3       6 GLP5        0.0000 
     58 CA         18.2456   -8.2120    5.8632 C.3       3 GLC5        0.0000 
     59 CA         19.2360   -9.4850    6.6060 C.3       6 GLP5        0.0000 
     60 CA         13.4298   -7.4075    3.7562 C.3       3 GLC5        0.0000 
     61 CA         15.2600   -6.8350    3.0890 C.3       9 GLL5        0.0000 
     62 CA         11.8230   -8.3360    3.8710 C.3       6 GLP5        0.0000 
     63 CA         12.6665   -7.1762   10.3015 C.3       3 GLC5        0.0000 
     64 CA         11.3660   -8.5460    9.8970 C.3       6 GLP5        0.0000 
     65 CA         12.2763   -4.6670    9.5770 C.3       3 GLC5        0.0000 
     66 CA         13.4390   -5.5450   11.0660 C.3       9 GLL5        0.0000 
     67 CA         15.0077   -4.7960   12.2385 C.3       3 GLC5        0.0000 
     68 CA         15.9089   -7.6396    6.9475 C.3       3 GLC5        0.0000 
@<TRIPOS>BOND
@<TRIPOS>SUBSTRUCTURE
     1 ALC1       22 GROUP        1 X    ALC  0     ROOT ALC X 1
     2 SEC2       13 GROUP        1 X    SEC  0     **** SEC X 2
     3 GLC5        1 GROUP        1 X    GLC  0     **** GLC X 6
     4 ALP1       24 GROUP        1 Y    ALP  0     ROOT ALP Y 8
     5 SEP2       15 GROUP        1 Y    SEP  0     **** SEP Y 9
     6 GLP5        3 GROUP        1 Y    GLP  0     **** GLP Y 13
     7 ALL1       23 GROUP        1 Z    ALL  0     ROOT ALL Z 15
     8 SEL2       14 GROUP        1 Z    SEL  0     **** SEL Z 16
     9 GLL5        2 GROUP        1 Z    GLL  0     **** GLL Z 20
@<TRIPOS>SET

