#    Name: 2xjg_XJG_1_ligand
#    Modification time : Tue Mar 25 06:05:46 2014

@<TRIPOS>MOLECULE
2xjg_XJG_1_ligand
   44    46     1     0     0
SMALL
NO_CHARGES


@<TRIPOS>ATOM
      1 C1         14.0990   -1.2060    8.9180 C.3       1 XJG1224     0.0000 
      2 C2         13.8360   -1.7880   10.3100 C.3       1 XJG1224     0.0000 
      3 C3         14.7110   -1.0830   11.3320 C.3       1 XJG1224     0.0000 
      4 C4         14.0460   -3.2980   10.3390 C.ar      1 XJG1224     0.0000 
      5 C5         15.1080   -3.8480    9.6140 C.ar      1 XJG1224     0.0000 
      6 C6         15.3360   -5.2220    9.6040 C.ar      1 XJG1224     0.0000 
      7 C7         16.4980   -5.7500    8.8540 C.2       1 XJG1224     0.0000 
      8 O8         17.5030   -6.0330    9.4770 O.2       1 XJG1224     0.0000 
      9 N9         16.4330   -5.8750    7.4860 N.am      1 XJG1224     0.0000 
     10 C10        17.5350   -6.4160    6.6740 C.3       1 XJG1224     0.0000 
     11 C11        16.8640   -6.6500    5.3460 C.ar      1 XJG1224     0.0000 
     12 C12        17.3110   -7.3450    4.2310 C.ar      1 XJG1224     0.0000 
     13 C13        16.5080   -7.4380    3.1030 C.ar      1 XJG1224     0.0000 
     14 C14        15.2600   -6.8350    3.0890 C.ar      1 XJG1224     0.0000 
     15 C15        14.8130   -6.1230    4.1940 C.ar      1 XJG1224     0.0000 
     16 C16        15.6150   -6.0100    5.3230 C.ar      1 XJG1224     0.0000 
     17 C17        15.3490   -5.3330    6.6450 C.3       1 XJG1224     0.0000 
     18 C18        14.4950   -6.0680   10.3460 C.ar      1 XJG1224     0.0000 
     19 O19        14.6810   -7.4160   10.3600 O.3       1 XJG1224     0.0000 
     20 C20        13.4390   -5.5450   11.0660 C.ar      1 XJG1224     0.0000 
     21 C21        13.1980   -4.1890   11.0700 C.ar      1 XJG1224     0.0000 
     22 O22        12.1650   -3.6460   11.7560 O.3       1 XJG1224     0.0000 
     23 C19        11.3330   -4.5470   12.5150 C.3       1 XJG1224     0.0000 
     24 H          12.7912   -1.5816   10.5622 H         1 XJG1224     0.0000 
     25 H          15.7326   -3.2224    9.0775 H         1 XJG1224     0.0000 
     26 H          17.8797   -7.3414    7.0673 H         1 XJG1224     0.0000 
     27 H          18.3118   -5.6995    6.5597 H         1 XJG1224     0.0000 
     28 H          18.2383   -7.7916    4.2407 H         1 XJG1224     0.0000 
     29 H          16.8399   -7.9550    2.2769 H         1 XJG1224     0.0000 
     30 H          14.6595   -6.9150    2.2539 H         1 XJG1224     0.0000 
     31 H          13.8846   -5.6773    4.1772 H         1 XJG1224     0.0000 
     32 H          15.4445   -4.2822    6.5323 H         1 XJG1224     0.0000 
     33 H          14.3986   -5.6297    7.0120 H         1 XJG1224     0.0000 
     34 H          12.8240   -6.1792   11.6070 H         1 XJG1224     0.0000 
     35 H          15.0535   -1.3194    8.6423 H         1 XJG1224     0.0000 
     36 H          13.5374   -1.6480    8.2185 H         1 XJG1224     0.0000 
     37 H          13.8974   -0.2273    8.8805 H         1 XJG1224     0.0000 
     38 H          15.6836   -1.1919   11.1264 H         1 XJG1224     0.0000 
     39 H          14.5264   -0.1007   11.3644 H         1 XJG1224     0.0000 
     40 H          14.5648   -1.4393   12.2549 H         1 XJG1224     0.0000 
     41 H          11.8556   -5.0353   13.2139 H         1 XJG1224     0.0000 
     42 H          10.5947   -4.0635   12.9853 H         1 XJG1224     0.0000 
     43 H          10.9060   -5.2382   11.9321 H         1 XJG1224     0.0000 
     44 H          14.6831   -7.6668   11.3280 H         1 XJG1224     0.0000 
@<TRIPOS>BOND
     1    2    1 1    
     2   35    1 1    
     3   36    1 1    
     4   37    1 1    
     5    3    2 1    
     6    4    2 1    
     7   24    2 1    
     8   38    3 1    
     9   39    3 1    
    10   40    3 1    
    11    5    4 ar   
    12   21    4 ar   
    13    6    5 ar   
    14   25    5 1    
    15    7    6 1    
    16   18    6 ar   
    17    8    7 2    
    18    9    7 am   
    19   10    9 1    
    20   17    9 1    
    21   11   10 1    
    22   26   10 1    
    23   27   10 1    
    24   12   11 ar   
    25   16   11 ar   
    26   13   12 ar   
    27   28   12 1    
    28   14   13 ar   
    29   29   13 1    
    30   15   14 ar   
    31   30   14 1    
    32   16   15 ar   
    33   31   15 1    
    34   17   16 1    
    35   32   17 1    
    36   33   17 1    
    37   19   18 1    
    38   20   18 ar   
    39   44   19 1    
    40   21   20 ar   
    41   34   20 1    
    42   22   21 1    
    43   23   22 1    
    44   41   23 1    
    45   42   23 1    
    46   43   23 1    
@<TRIPOS>SUBSTRUCTURE
     1 XJG1224     1 GROUP   
@<TRIPOS>SET

