#    Name: 4mqy_2CW_1_INTS_M
#    Modification time : Tue Mar 25 12:21:09 2014

@<TRIPOS>MOLECULE
4mqy_2CW_1_INTS_M
   64     0     9     0     0
SMALL
NO_CHARGES


@<TRIPOS>ATOM
      1 Zn        191.4760  106.6895    0.4740 Zn        2 ZIC7        0.0000 
      2 Zn        191.7280  105.5660    0.8240 Zn        8 ZIL7        0.0000 
      3 Zn        191.2240  107.8130    0.1240 Zn        5 ZIP7        0.0000 
      4 N         193.7245  106.6170   -2.0745 N.am      1 SEC2        0.0000 
      5 N         193.1470  105.9670   -0.9020 N.am      7 SEL2        0.0000 
      6 N         194.3020  107.2670   -3.2470 N.am      4 SEP2        0.0000 
      7 Zn        192.0935  107.6090   -0.3020 Zn        2 ZIC7        0.0000 
      8 Zn        192.9630  107.4050   -0.7280 Zn        8 ZIL7        0.0000 
      9 N         193.6325  107.3360   -1.9875 N.am      1 SEC2        0.0000 
     10 N         192.9630  107.4050   -0.7280 N.am      7 SEL2        0.0000 
     11 CA        194.5500  104.6505    3.5165 C.3       3 GLC5        0.0000 
     12 CA        193.2360  103.0990    4.3930 C.3       9 GLL5        0.0000 
     13 CA        195.8640  106.2020    2.6400 C.3       6 GLP5        0.0000 
     14 CA        194.3780   99.9640    7.0485 C.3       3 GLC5        0.0000 
     15 CA        192.2470  100.4880    6.7240 C.3       9 GLL5        0.0000 
     16 CA        196.5090   99.4400    7.3730 C.3       6 GLP5        0.0000 
     17 CA        188.5235   99.1585   12.0175 C.3       3 GLC5        0.0000 
     18 CA        189.9270   97.5570   11.5800 C.3       9 GLL5        0.0000 
     19 CA        187.1200  100.7600   12.4550 C.3       6 GLP5        0.0000 
     20 CA        188.6215  102.6815   -1.4795 C.3       3 GLC5        0.0000 
     21 CA        190.3040  103.2070   -0.8210 C.3       9 GLL5        0.0000 
     22 CA        186.9390  102.1560   -2.1380 C.3       6 GLP5        0.0000 
     23 CA        189.2825  105.1655   -0.5630 C.3       3 GLC5        0.0000 
     24 CA        188.2610  107.1240   -0.3050 C.3       6 GLP5        0.0000 
     25 CA        195.6410  104.6405   -0.2990 C.3       3 GLC5        0.0000 
     26 CA        194.1430  103.4310   -0.7440 C.3       9 GLL5        0.0000 
     27 CA        197.1390  105.8500    0.1460 C.3       6 GLP5        0.0000 
     28 CA        194.6915  101.0655    2.9750 C.3       3 GLC5        0.0000 
     29 CA        193.0320  102.4980    3.1570 C.3       9 GLL5        0.0000 
     30 CA        196.5850  100.2870    2.8270 C.3       6 GLP5        0.0000 
     31 CA        194.7345  103.3905    5.5172 C.3       3 GLC5        0.0000 
     32 CA        196.3650  104.0350    6.0570 C.3       6 GLP5        0.0000 
     33 CA        191.5470  103.8809    4.6798 C.3       3 GLC5        0.0000 
     34 CA        192.9720  102.3930    5.5620 C.3       9 GLL5        0.0000 
     35 CA        190.0410  105.1660    4.6910 C.3       6 GLP5        0.0000 
     36 CA        190.9070  102.0342    6.3470 C.3       3 GLC5        0.0000 
     37 CA        189.0760  102.3290    7.1660 C.3       6 GLP5        0.0000 
     38 CA        190.6022  101.2562    7.2400 C.3       3 GLC5        0.0000 
     39 CA        191.6207   98.2668    7.4972 C.3       3 GLC5        0.0000 
     40 CA        192.0100   99.8790    7.9040 C.3       9 GLL5        0.0000 
     41 CA        191.3560   96.9990    6.5310 C.3       6 GLP5        0.0000 
     42 CA        193.0012  100.1822    9.7748 C.3       3 GLC5        0.0000 
     43 CA        194.1170  100.8300   11.0860 C.3       6 GLP5        0.0000 
     44 CA        189.8598   98.9153    8.4043 C.3       3 GLC5        0.0000 
     45 CA        191.7610   99.1900    9.0230 C.3       9 GLL5        0.0000 
     46 CA        187.8340   98.2960    8.3450 C.3       6 GLP5        0.0000 
     47 CA        191.2532   99.6993   11.2703 C.3       3 GLC5        0.0000 
     48 CA        190.8710  100.5620   13.0310 C.3       6 GLP5        0.0000 
     49 CA        190.7260   99.0915   12.1917 C.3       3 GLC5        0.0000 
     50 CA        189.2419   98.0583    9.7076 C.3       3 GLC5        0.0000 
     51 CA        190.5285   98.5622   13.0678 C.3       3 GLC5        0.0000 
     52 CA        189.6640   96.8520   12.7480 C.3       9 GLL5        0.0000 
     53 CA        189.3954   95.2284   11.8547 C.3       3 GLC5        0.0000 
     54 CA        188.5390   93.7180   10.8970 C.3       6 GLP5        0.0000 
     55 CA        191.5093   98.6585   12.7267 C.3       3 GLC5        0.0000 
     56 CA        192.0160   96.4020   13.0070 C.3       9 GLL5        0.0000 
     57 CA        192.7594   96.8675    9.9411 C.3       3 GLC5        0.0000 
     58 CA        192.2790   97.1080   11.8380 C.3       9 GLL5        0.0000 
     59 CA        193.6930   96.1390    8.6830 C.3       6 GLP5        0.0000 
     60 CA        192.9714   99.2130   11.1426 C.3       3 GLC5        0.0000 
     61 CA        190.9615   99.5883    3.3110 C.3       3 GLC5        0.0000 
     62 CA        192.3000  100.4850    4.2570 C.3       9 GLL5        0.0000 
     63 CA        189.4910   98.3390    2.9490 C.3       6 GLP5        0.0000 
     64 CA        191.8469   98.8175    5.8570 C.3       3 GLC5        0.0000 
@<TRIPOS>BOND
@<TRIPOS>SUBSTRUCTURE
     1 SEC2        4 GROUP        1 X    SEC  0     ROOT SEC X 2
     2 ZIC7        1 GROUP        1 X    ZIC  0     **** ZIC X 5
     3 GLC5       11 GROUP        1 X    GLC  0     **** GLC X 6
     4 SEP2        6 GROUP        1 Y    SEP  0     ROOT SEP Y 9
     5 ZIP7        3 GROUP        1 Y    ZIP  0     **** ZIP Y 12
     6 GLP5       13 GROUP        1 Y    GLP  0     **** GLP Y 13
     7 SEL2        5 GROUP        1 Z    SEL  0     ROOT SEL Z 16
     8 ZIL7        2 GROUP        1 Z    ZIL  0     **** ZIL Z 19
     9 GLL5       12 GROUP        1 Z    GLL  0     **** GLL Z 20
@<TRIPOS>SET

