#    Name: 4mqy_2CW_1_ligand
#    Modification time : Tue Mar 25 12:21:09 2014

@<TRIPOS>MOLECULE
4mqy_2CW_1_ligand
   48    49     1     0     0
SMALL
NO_CHARGES


@<TRIPOS>ATOM
      1 O01       191.7280  105.5660    0.8240 O.2       1 2CW402      0.0000 
      2 C02       192.4760  105.1640   -0.0650 C.2       1 2CW402      0.0000 
      3 N03       193.1470  105.9670   -0.9020 N.2       1 2CW402      0.0000 
      4 O04       192.9630  107.4050   -0.7280 O.2       1 2CW402      0.0000 
      5 C05       192.7030  103.6670   -0.2870 C.3       1 2CW402      0.0000 
      6 N06       192.4640  102.9430    0.9710 N.am      1 2CW402      0.0000 
      7 C07       193.2950  103.2030    1.9890 C.2       1 2CW402      0.0000 
      8 C08       193.0320  102.4980    3.1570 C.ar      1 2CW402      0.0000 
      9 C09       193.2360  103.0990    4.3930 C.ar      1 2CW402      0.0000 
     10 C10       192.9720  102.3930    5.5620 C.ar      1 2CW402      0.0000 
     11 C11       192.5040  101.0860    5.4940 C.ar      1 2CW402      0.0000 
     12 C12       192.2470  100.4880    6.7240 C.1       1 2CW402      0.0000 
     13 C13       192.0100   99.8790    7.9040 C.1       1 2CW402      0.0000 
     14 C14       191.7610   99.1900    9.0230 C.1       1 2CW402      0.0000 
     15 C15       191.5100   98.4830    9.9960 C.1       1 2CW402      0.0000 
     16 C16       191.2350   97.6850   11.1250 C.ar      1 2CW402      0.0000 
     17 C17       189.9270   97.5570   11.5800 C.ar      1 2CW402      0.0000 
     18 C18       189.6640   96.8520   12.7480 C.ar      1 2CW402      0.0000 
     19 C19       190.7080   96.2730   13.4610 C.ar      1 2CW402      0.0000 
     20 C20       192.0160   96.4020   13.0070 C.ar      1 2CW402      0.0000 
     21 C21       192.2790   97.1080   11.8380 C.ar      1 2CW402      0.0000 
     22 N22       190.4560   95.5990   14.5790 N.pl3     1 2CW402      0.0000 
     23 C23       192.3000  100.4850    4.2570 C.ar      1 2CW402      0.0000 
     24 C24       192.5640  101.1900    3.0890 C.ar      1 2CW402      0.0000 
     25 O25       194.2300  104.0000    1.9270 O.2       1 2CW402      0.0000 
     26 C26       191.7370  103.1580   -1.3590 C.3       1 2CW402      0.0000 
     27 O27       191.8380  103.9830   -2.5230 O.3       1 2CW402      0.0000 
     28 C28       190.3040  103.2070   -0.8210 C.3       1 2CW402      0.0000 
     29 C29       194.1430  103.4310   -0.7440 C.3       1 2CW402      0.0000 
     30 H         191.6967  102.2964    1.0021 H         1 2CW402      0.0000 
     31 H         193.5823  104.0661    4.4443 H         1 2CW402      0.0000 
     32 H         193.1232  102.8385    6.4765 H         1 2CW402      0.0000 
     33 H         189.1551   97.9843   11.0517 H         1 2CW402      0.0000 
     34 H         188.6970   96.7581   13.0858 H         1 2CW402      0.0000 
     35 H         192.7882   95.9758   13.5351 H         1 2CW402      0.0000 
     36 H         193.2462   97.2028   11.5016 H         1 2CW402      0.0000 
     37 H         191.2521   95.2339   15.0616 H         1 2CW402      0.0000 
     38 H         189.4931   95.5180   14.8364 H         1 2CW402      0.0000 
     39 H         191.9534   99.5177    4.2067 H         1 2CW402      0.0000 
     40 H         192.4135  100.7452    2.1741 H         1 2CW402      0.0000 
     41 H         191.9811  102.1358   -1.5763 H         1 2CW402      0.0000 
     42 H         190.1937  102.6384   -0.0058 H         1 2CW402      0.0000 
     43 H         190.0334  104.1362   -0.5691 H         1 2CW402      0.0000 
     44 H         189.6423  102.8821   -1.4967 H         1 2CW402      0.0000 
     45 H         194.8049  103.7506   -0.0660 H         1 2CW402      0.0000 
     46 H         194.3288  102.4609   -0.9004 H         1 2CW402      0.0000 
     47 H         194.3446  103.9095   -1.5986 H         1 2CW402      0.0000 
     48 H         192.7499  104.3903   -2.4731 H         1 2CW402      0.0000 
@<TRIPOS>BOND
     1    2    1 2    
     2    3    2 1    
     3    5    2 1    
     4    4    3 2    
     5    6    5 1    
     6   26    5 1    
     7   29    5 1    
     8    7    6 am   
     9   30    6 1    
    10    8    7 1    
    11   25    7 2    
    12    9    8 ar   
    13   24    8 ar   
    14   10    9 ar   
    15   31    9 1    
    16   11   10 ar   
    17   32   10 1    
    18   12   11 1    
    19   23   11 ar   
    20   13   12 3    
    21   14   13 1    
    22   15   14 3    
    23   16   15 1    
    24   17   16 ar   
    25   21   16 ar   
    26   18   17 ar   
    27   33   17 1    
    28   19   18 ar   
    29   34   18 1    
    30   20   19 ar   
    31   22   19 1    
    32   21   20 ar   
    33   35   20 1    
    34   36   21 1    
    35   37   22 1    
    36   38   22 1    
    37   24   23 ar   
    38   39   23 1    
    39   40   24 1    
    40   27   26 1    
    41   28   26 1    
    42   41   26 1    
    43   48   27 1    
    44   42   28 1    
    45   43   28 1    
    46   44   28 1    
    47   45   29 1    
    48   46   29 1    
    49   47   29 1    
@<TRIPOS>SUBSTRUCTURE
     1 2CW402      1 GROUP   
@<TRIPOS>SET

