#    Name: 2I47_3_CAVITY_N1_ALL.mol2
#    Modification time : Mon Mar 10 18:25:14 2014

@<TRIPOS>MOLECULE
2I47_3_CAVITY_N1_ALL.mol2
   71     0     6     0     0
SMALL
NO_CHARGES


@<TRIPOS>ATOM
      1 CA         31.5260   66.1765    4.8107 C.3       5 GLY6        0.0000 
      2 CA         31.1524   65.5938    6.1415 C.3       5 GLY6        0.0000 
      3 CA         30.2026   65.7461    4.2508 C.3       5 GLY6        0.0000 
      4 CA         29.8291   65.1633    5.5815 C.3       5 GLY6        0.0000 
      5 O          29.4556   64.5806    6.9123 O.2       2 ALA2        0.0000 
      6 CA         28.8793   65.3157    3.6909 C.3       5 GLY6        0.0000 
      7 CA         28.5057   64.7329    5.0216 C.3       5 GLY6        0.0000 
      8 N          28.1322   64.1502    6.3524 N.2       2 ALA2        0.0000 
      9 CA         27.1824   64.3025    4.4617 C.3       5 GLY6        0.0000 
     10 NZ         26.8089   63.7198    5.7925 N.2       4 LYS4        0.0000 
     11 OD1        26.4353   63.1371    7.1232 O.3       3 ASP3        0.0000 
     12 N          25.4855   63.2894    5.2325 N.2       2 ALA2        0.0000 
     13 OD1        24.7385   62.1240    7.8940 O.3       3 ASP3        0.0000 
     14 CA         26.4818   70.5695    5.3185 C.3       5 GLY6        0.0000 
     15 CA         26.1083   69.9868    6.6493 C.3       5 GLY6        0.0000 
     16 N          24.7850   69.5564    6.0893 N.2       2 ALA2        0.0000 
     17 N          24.4114   68.9737    7.4201 N.2       2 ALA2        0.0000 
     18 N          24.0379   68.3910    8.7508 N.2       2 ALA2        0.0000 
     19 N          23.8352   69.7087    4.1987 N.2       2 ALA2        0.0000 
     20 DU         23.0881   68.5433    6.8602 H         6 CUB7        0.0000 
     21 N          22.1383   68.6956    4.9695 N.2       2 ALA2        0.0000 
     22 O          27.3070   67.3599    5.8354 O.2       2 ALA2        0.0000 
     23 N          26.3572   67.5122    3.9448 N.2       2 ALA2        0.0000 
     24 N          25.9837   66.9295    5.2755 N.2       2 ALA2        0.0000 
     25 N          25.6101   66.3468    6.6063 N.2       2 ALA2        0.0000 
     26 N          25.2366   65.7640    7.9370 N.2       2 ALA2        0.0000 
     27 N          24.8631   65.1813    9.2678 N.2       2 ALA2        0.0000 
     28 CA         24.6603   66.4991    4.7156 C.3       5 GLY6        0.0000 
     29 DU         24.2868   65.9164    6.0464 H         6 CUB7        0.0000 
     30 DU         23.9133   65.3336    7.3771 H         6 CUB7        0.0000 
     31 DU         23.5397   64.7509    8.7079 H         6 CUB7        0.0000 
     32 OG         22.9635   65.4859    5.4864 O.2       1 SER1        0.0000 
     33 OG         22.5899   64.9032    6.8172 O.2       1 SER1        0.0000 
     34 DU         22.2164   64.3205    8.1479 H         6 CUB7        0.0000 
     35 OG         21.2666   64.4728    6.2573 O.2       1 SER1        0.0000 
     36 CA         29.2297   66.4768    5.9885 C.3       5 GLY6        0.0000 
     37 N          28.8562   65.8941    7.3192 N.2       2 ALA2        0.0000 
     38 CA         28.2799   66.6291    4.0978 C.3       5 GLY6        0.0000 
     39 CA         27.9064   66.0464    5.4285 C.3       5 GLY6        0.0000 
     40 N          27.5329   65.4637    6.7593 N.2       2 ALA2        0.0000 
     41 N          27.1593   64.8810    8.0900 N.2       2 ALA2        0.0000 
     42 CA         26.9566   66.1987    3.5379 C.3       5 GLY6        0.0000 
     43 O          26.5830   65.6160    4.8686 O.2       2 ALA2        0.0000 
     44 N          26.2095   65.0333    6.1994 N.2       2 ALA2        0.0000 
     45 OD1        25.8360   64.4506    7.5301 O.3       3 ASP3        0.0000 
     46 O          25.2597   65.1856    4.3087 O.2       2 ALA2        0.0000 
     47 N          24.8862   64.6029    5.6394 N.2       2 ALA2        0.0000 
     48 N          24.5126   64.0202    6.9702 N.2       2 ALA2        0.0000 
     49 OD1        24.1391   63.4375    8.3010 O.3       3 ASP3        0.0000 
     50 OD1        23.7656   62.8547    9.6317 O.3       3 ASP3        0.0000 
     51 CA         23.5628   64.1725    5.0795 C.3       5 GLY6        0.0000 
     52 N          23.1893   63.5898    6.4103 N.2       2 ALA2        0.0000 
     53 N          22.8157   63.0071    7.7410 N.2       2 ALA2        0.0000 
     54 CA         21.8659   63.1594    5.8504 C.3       5 GLY6        0.0000 
     55 CA         21.4924   62.5766    7.1811 C.3       5 GLY6        0.0000 
     56 CA         30.8020   64.4326    3.8439 C.3       5 GLY6        0.0000 
     57 CA         30.4285   63.8499    5.1746 C.3       5 GLY6        0.0000 
     58 CA         29.4786   64.0022    3.2840 C.3       5 GLY6        0.0000 
     59 CA         29.1051   63.4195    4.6147 C.3       5 GLY6        0.0000 
     60 CA         28.7316   62.8368    5.9455 C.3       5 GLY6        0.0000 
     61 O          27.7818   62.9891    4.0548 O.2       2 ALA2        0.0000 
     62 O          27.0812   69.2561    4.9116 O.2       2 ALA2        0.0000 
     63 N          26.7077   68.6733    6.2423 N.2       2 ALA2        0.0000 
     64 N          25.7579   68.8257    4.3517 N.2       2 ALA2        0.0000 
     65 N          25.3843   68.2429    5.6824 N.2       2 ALA2        0.0000 
     66 N          25.0108   67.6602    7.0132 N.2       2 ALA2        0.0000 
     67 N          24.0610   67.8125    5.1225 N.2       2 ALA2        0.0000 
     68 DU         23.6874   67.2298    6.4533 H         6 CUB7        0.0000 
     69 N          23.3139   66.6471    7.7840 N.2       2 ALA2        0.0000 
     70 OG         22.7376   67.3821    4.5626 O.2       1 SER1        0.0000 
     71 OG         22.3641   66.7994    5.8933 O.2       1 SER1        0.0000 
@<TRIPOS>BOND
@<TRIPOS>SUBSTRUCTURE
     1 SER1       32 GROUP   
     2 ALA2        5 GROUP   
     3 ASP3       11 GROUP   
     4 LYS4       10 GROUP   
     5 GLY6        1 GROUP   
     6 CUB7       20 GROUP   
@<TRIPOS>SET

