#    Name: 2i47_KGY_3_INTS_M
#    Modification time : Tue Mar 25 17:24:15 2014

@<TRIPOS>MOLECULE
2i47_KGY_3_INTS_M
   74     0    12     0     0
SMALL
NO_CHARGES


@<TRIPOS>ATOM
      1 CA         17.9160   62.0900    5.1690 C.3       4 GLC5        0.0000 
      2 CA         17.3370   62.7070    6.5730 C.3      12 GLL5        0.0000 
      3 CA         18.4950   61.4730    3.7650 C.3       8 GLP5        0.0000 
      4 CA         16.4430   60.7645    6.2875 C.3       4 GLC5        0.0000 
      5 CA         15.5490   58.8220    6.0020 C.3       8 GLP5        0.0000 
      6 Zn         24.0280   63.0915    9.0590 Zn        3 ZIC7        0.0000 
      7 Zn         21.2060   64.0140    8.3910 Zn       11 ZIL7        0.0000 
      8 Zn         26.8500   62.1690    9.7270 Zn        7 ZIP7        0.0000 
      9 CA         22.4135   63.8415    4.6905 C.3       4 GLC5        0.0000 
     10 CA         22.9260   63.9260    6.5880 C.3      12 GLL5        0.0000 
     11 CA         21.9010   63.7570    2.7930 C.3       8 GLP5        0.0000 
     12 CA         21.4840   61.4715    7.3085 C.3       4 GLC5        0.0000 
     13 CA         21.7350   63.2210    7.2710 C.3      12 GLL5        0.0000 
     14 CA         21.2330   59.7220    7.3460 C.3       8 GLP5        0.0000 
     15 Zn         26.2915   62.9470    9.3780 Zn        3 ZIC7        0.0000 
     16 Zn         25.7330   63.7250    9.0290 Zn       11 ZIL7        0.0000 
     17 O          24.5230   61.7210    6.1695 O.2       1 ALC1        0.0000 
     18 O          24.9200   62.2450    7.5060 O.2       9 ALL1        0.0000 
     19 O          24.1260   61.1970    4.8330 O.2       5 ALP1        0.0000 
     20 N          24.8550   64.6255    3.1400 N.am      2 SEC2        0.0000 
     21 N          24.8450   64.7100    4.5540 N.am     10 SEL2        0.0000 
     22 N          24.8650   64.5410    1.7260 N.am      6 SEP2        0.0000 
     23 CA         26.5040   62.1715    3.8430 C.3       4 GLC5        0.0000 
     24 CA         27.6630   63.8120    4.8050 C.3      12 GLL5        0.0000 
     25 CA         25.3450   60.5310    2.8810 C.3       8 GLP5        0.0000 
     26 CA         30.9005   62.7730    4.2455 C.3       4 GLC5        0.0000 
     27 CA         29.9650   64.1170    5.6450 C.3      12 GLL5        0.0000 
     28 CA         31.8360   61.4290    2.8460 C.3       8 GLP5        0.0000 
     29 CA         32.1150   62.9985    4.2270 C.3       4 GLC5        0.0000 
     30 CA         32.3940   64.5680    5.6080 C.3      12 GLL5        0.0000 
     31 CA         32.0425   62.8635    6.3605 C.3       4 GLC5        0.0000 
     32 CA         31.6910   61.1590    7.1130 C.3       8 GLP5        0.0000 
     33 CA         34.0540   63.6185    6.7050 C.3       4 GLC5        0.0000 
     34 CA         35.7140   62.6690    7.8020 C.3       8 GLP5        0.0000 
     35 CA         31.4980   66.5690    5.5680 C.3       4 GLC5        0.0000 
     36 CA         30.6020   68.5700    5.5280 C.3       8 GLP5        0.0000 
     37 CA         33.5500   66.3610    0.2400 C.3       4 GLC5        0.0000 
     38 CA         32.7820   66.4270    1.9370 C.3      12 GLL5        0.0000 
     39 CA         34.3180   66.2950   -1.4570 C.3       8 GLP5        0.0000 
     40 CA         31.7920   64.7760    1.5975 C.3       4 GLC5        0.0000 
     41 CA         30.8020   63.1250    1.2580 C.3       8 GLP5        0.0000 
     42 CA         31.4455   67.3910    3.0125 C.3       4 GLC5        0.0000 
     43 CA         30.1090   68.3550    4.0880 C.3       8 GLP5        0.0000 
     44 Zn         26.3000   61.7005    8.8090 Zn        3 ZIC7        0.0000 
     45 Zn         25.7500   61.2320    7.8910 Zn       11 ZIL7        0.0000 
     46 O          26.2165   59.8705    7.3285 O.2       1 ALC1        0.0000 
     47 O          25.7500   61.2320    7.8910 O.2       9 ALL1        0.0000 
     48 O          26.6830   58.5090    6.7660 O.2       5 ALP1        0.0000 
     49 O          26.4465   60.8100    6.8135 O.2       1 ALC1        0.0000 
     50 O          27.1430   60.3880    5.7360 O.2       5 ALP1        0.0000 
     51 CA         20.0838   61.1033    8.2875 C.3       4 GLC5        0.0000 
     52 CA         19.0330   62.0600    9.7780 C.3      12 GLL5        0.0000 
     53 CA         28.9465   62.3275    3.3270 C.3       4 GLC5        0.0000 
     54 CA         29.5520   61.0610    1.8160 C.3       8 GLP5        0.0000 
     55 CA         28.8460   62.5270    6.5210 C.3       4 GLC5        0.0000 
     56 CA         29.0190   63.3760    4.8710 C.3      12 GLL5        0.0000 
     57 CA         29.3510   61.4600    8.2040 C.3       8 GLP5        0.0000 
     58 CA         27.7436   64.0781    3.0629 C.3       4 GLC5        0.0000 
     59 CA         27.2430   64.2660    1.1110 C.3       8 GLP5        0.0000 
     60 CA         30.2082   63.2410    7.0038 C.3       4 GLC5        0.0000 
     61 CA         30.6540   61.7690    8.0040 C.3       8 GLP5        0.0000 
     62 CA         29.7936   66.8997    5.8391 C.3       4 GLC5        0.0000 
     63 CA         28.2080   65.7460    6.2970 C.3      12 GLL5        0.0000 
     64 CA         34.0242   64.3695    4.1695 C.3       4 GLC5        0.0000 
     65 CA         35.5860   63.8460    3.3920 C.3       8 GLP5        0.0000 
     66 CA         33.9898   66.2330    5.5790 C.3       4 GLC5        0.0000 
     67 CA         32.5310   65.2180    4.2860 C.3      12 GLL5        0.0000 
     68 CA         35.5170   67.5730    6.2110 C.3       8 GLP5        0.0000 
     69 CA         31.6898   64.3133    2.5077 C.3       4 GLC5        0.0000 
     70 CA         31.3433   66.9282    3.9227 C.3       4 GLC5        0.0000 
     71 CA         32.6240   65.7850    3.2290 C.3      12 GLL5        0.0000 
     72 CA         30.7485   66.1680    1.9675 C.3       4 GLC5        0.0000 
     73 CA         28.7940   66.2300    1.3520 C.3       8 GLP5        0.0000 
     74 CA         34.1445   64.9760    2.9875 C.3       4 GLC5        0.0000 
@<TRIPOS>BOND
@<TRIPOS>SUBSTRUCTURE
     1 ALC1       17 GROUP        1 X    ALC  0     ROOT ALC X 1
     2 SEC2       20 GROUP        1 X    SEC  0     **** SEC X 2
     3 ZIC7        6 GROUP        1 X    ZIC  0     **** ZIC X 5
     4 GLC5        1 GROUP        1 X    GLC  0     **** GLC X 6
     5 ALP1       19 GROUP        1 Y    ALP  0     ROOT ALP Y 8
     6 SEP2       22 GROUP        1 Y    SEP  0     **** SEP Y 9
     7 ZIP7        8 GROUP        1 Y    ZIP  0     **** ZIP Y 12
     8 GLP5        3 GROUP        1 Y    GLP  0     **** GLP Y 13
     9 ALL1       18 GROUP        1 Z    ALL  0     ROOT ALL Z 15
    10 SEL2       21 GROUP        1 Z    SEL  0     **** SEL Z 16
    11 ZIL7        7 GROUP        1 Z    ZIL  0     **** ZIL Z 19
    12 GLL5        2 GROUP        1 Z    GLL  0     **** GLL Z 20
@<TRIPOS>SET

