#    Name: 2i47_KGY_3_ligand
#    Modification time : Tue Mar 25 17:24:15 2014

@<TRIPOS>MOLECULE
2i47_KGY_3_ligand
   62    64     1     0     0
SMALL
NO_CHARGES


@<TRIPOS>ATOM
      1 S1         19.6150   64.4160    8.4560 S.o2      1 KGY1001     0.0000 
      2 C2         18.8360   62.9090    8.6800 C.2       1 KGY1001     0.0000 
      3 O3         19.3040   65.1950    9.6140 O.2       1 KGY1001     0.0000 
      4 O4         19.2390   65.0240    7.1960 O.2       1 KGY1001     0.0000 
      5 C5         17.9090   62.2750    7.8530 C.2       1 KGY1001     0.0000 
      6 C6         19.0330   62.0600    9.7780 C.2       1 KGY1001     0.0000 
      7 N7         17.5870   61.0990    8.4630 N.2       1 KGY1001     0.0000 
      8 C8         17.3370   62.7070    6.5730 C.3       1 KGY1001     0.0000 
      9 O9         18.2480   60.9780    9.5910 O.3       1 KGY1001     0.0000 
     10 C10        19.8970   62.2150   10.9620 C.3       1 KGY1001     0.0000 
     11 N11        21.2060   64.0140    8.3910 N.pl3     1 KGY1001     0.0000 
     12 C12        22.1380   64.4400    9.4350 C.3       1 KGY1001     0.0000 
     13 C13        23.3260   65.2060    8.8250 C.3       1 KGY1001     0.0000 
     14 C14        23.9830   64.5200    7.5870 C.3       1 KGY1001     0.0000 
     15 C15        22.9260   63.9260    6.5880 C.3       1 KGY1001     0.0000 
     16 C16        21.7350   63.2210    7.2710 C.3       1 KGY1001     0.0000 
     17 C17        24.9650   63.4470    8.1140 C.2       1 KGY1001     0.0000 
     18 C18        24.8000   65.6510    6.9800 C.3       1 KGY1001     0.0000 
     19 O19        25.7330   63.7250    9.0290 O.2       1 KGY1001     0.0000 
     20 N20        24.9200   62.2450    7.5060 N.am      1 KGY1001     0.0000 
     21 S21        25.6070   65.5720    5.4130 S.o2      1 KGY1001     0.0000 
     22 O22        25.6920   66.9400    5.0030 O.2       1 KGY1001     0.0000 
     23 O23        24.8450   64.7100    4.5540 O.2       1 KGY1001     0.0000 
     24 C24        27.2760   64.9970    5.5120 C.ar      1 KGY1001     0.0000 
     25 C25        27.6630   63.8120    4.8050 C.ar      1 KGY1001     0.0000 
     26 C26        29.0190   63.3760    4.8710 C.ar      1 KGY1001     0.0000 
     27 C27        29.9650   64.1170    5.6450 C.ar      1 KGY1001     0.0000 
     28 C28        29.5600   65.3090    6.3620 C.ar      1 KGY1001     0.0000 
     29 C29        28.2080   65.7460    6.2970 C.ar      1 KGY1001     0.0000 
     30 O30        31.2890   63.6240    5.6520 O.3       1 KGY1001     0.0000 
     31 C31        32.3940   64.5680    5.6080 C.3       1 KGY1001     0.0000 
     32 C32        32.5310   65.2180    4.2860 C.1       1 KGY1001     0.0000 
     33 C33        32.6240   65.7850    3.2290 C.1       1 KGY1001     0.0000 
     34 C34        32.7820   66.4270    1.9370 C.3       1 KGY1001     0.0000 
     35 O35        25.7500   61.2320    7.8910 O.3       1 KGY1001     0.0000 
     36 H          22.5365   63.5789    9.9808 H         1 KGY1001     0.0000 
     37 H          21.6452   65.1004   10.1556 H         1 KGY1001     0.0000 
     38 H          24.1011   65.3413    9.5961 H         1 KGY1001     0.0000 
     39 H          22.9899   66.2112    8.5244 H         1 KGY1001     0.0000 
     40 H          23.4398   63.2126    5.9313 H         1 KGY1001     0.0000 
     41 H          22.5502   64.7448    5.9616 H         1 KGY1001     0.0000 
     42 H          20.9609   63.0552    6.5115 H         1 KGY1001     0.0000 
     43 H          22.0787   62.2385    7.6177 H         1 KGY1001     0.0000 
     44 H          25.6429   65.9656    7.6698 H         1 KGY1001     0.0000 
     45 H          24.1848   66.5987    6.8869 H         1 KGY1001     0.0000 
     46 H          24.2418   62.0783    6.7270 H         1 KGY1001     0.0000 
     47 H          26.9824   63.2952    4.2684 H         1 KGY1001     0.0000 
     48 H          29.3125   62.5439    4.3714 H         1 KGY1001     0.0000 
     49 H          30.2446   65.8201    6.9033 H         1 KGY1001     0.0000 
     50 H          27.9078   66.5701    6.7950 H         1 KGY1001     0.0000 
     51 H          33.3443   64.0529    5.8579 H         1 KGY1001     0.0000 
     52 H          32.2571   65.3500    6.3830 H         1 KGY1001     0.0000 
     53 H          18.0430   62.8444    5.8782 H         1 KGY1001     0.0000 
     54 H          16.6935   62.0343    6.2079 H         1 KGY1001     0.0000 
     55 H          16.8401   63.5704    6.6608 H         1 KGY1001     0.0000 
     56 H          20.8607   62.3026   10.7096 H         1 KGY1001     0.0000 
     57 H          19.6578   63.0283   11.4924 H         1 KGY1001     0.0000 
     58 H          19.8257   61.4313   11.5790 H         1 KGY1001     0.0000 
     59 H          33.7118   66.7704    1.8041 H         1 KGY1001     0.0000 
     60 H          32.5916   65.7975    1.1837 H         1 KGY1001     0.0000 
     61 H          32.1640   67.2060    1.8313 H         1 KGY1001     0.0000 
     62 H          26.1421   60.8815    7.0404 H         1 KGY1001     0.0000 
@<TRIPOS>BOND
     1    2    1 1    
     2    3    1 2    
     3    4    1 2    
     4   11    1 1    
     5    5    2 1    
     6    6    2 2    
     7    7    5 2    
     8    8    5 1    
     9    9    6 1    
    10   10    6 1    
    11    9    7 1    
    12   53    8 1    
    13   54    8 1    
    14   55    8 1    
    15   56   10 1    
    16   57   10 1    
    17   58   10 1    
    18   12   11 1    
    19   16   11 1    
    20   13   12 1    
    21   36   12 1    
    22   37   12 1    
    23   14   13 1    
    24   38   13 1    
    25   39   13 1    
    26   15   14 1    
    27   17   14 1    
    28   18   14 1    
    29   16   15 1    
    30   40   15 1    
    31   41   15 1    
    32   42   16 1    
    33   43   16 1    
    34   19   17 2    
    35   20   17 am   
    36   21   18 1    
    37   44   18 1    
    38   45   18 1    
    39   35   20 1    
    40   46   20 1    
    41   22   21 2    
    42   23   21 2    
    43   24   21 1    
    44   25   24 ar   
    45   29   24 ar   
    46   26   25 ar   
    47   47   25 1    
    48   27   26 ar   
    49   48   26 1    
    50   28   27 ar   
    51   30   27 1    
    52   29   28 ar   
    53   49   28 1    
    54   50   29 1    
    55   31   30 1    
    56   32   31 1    
    57   51   31 1    
    58   52   31 1    
    59   33   32 3    
    60   34   33 1    
    61   59   34 1    
    62   60   34 1    
    63   61   34 1    
    64   62   35 1    
@<TRIPOS>SUBSTRUCTURE
     1 KGY1001     1 GROUP   
@<TRIPOS>SET

