#    Name: 2hcy_8ID_1_INTS_M
#    Modification time : Tue Mar 25 15:53:39 2014

@<TRIPOS>MOLECULE
2hcy_8ID_1_INTS_M
  120     0    12     0     0
SMALL
NO_CHARGES


@<TRIPOS>ATOM
      1 N          85.3735   -8.6365   49.9745 N.am      2 SEC2        0.0000 
      2 N          85.1580   -9.3780   48.9080 N.am     10 SEL2        0.0000 
      3 N          85.5890   -7.8950   51.0410 N.am      6 SEP2        0.0000 
      4 O          82.9295   -9.3365   46.0945 O.2       1 ALC1        0.0000 
      5 O          83.7550   -8.9680   47.1960 O.2       9 ALL1        0.0000 
      6 O          82.1040   -9.7050   44.9930 O.2       5 ALP1        0.0000 
      7 O          83.0485   -8.0925   48.1110 O.2       1 ALC1        0.0000 
      8 O          82.3420   -7.2170   49.0260 O.2       5 ALP1        0.0000 
      9 CA         86.9560  -10.7490   49.2070 C.3       4 GLC5        0.0000 
     10 CA         85.7850  -11.9680   48.0160 C.3      12 GLL5        0.0000 
     11 CA         88.1270   -9.5300   50.3980 C.3       8 GLP5        0.0000 
     12 CA         85.2015  -15.0395   46.8385 C.3       4 GLC5        0.0000 
     13 CA         85.6830  -13.5670   46.2310 C.3      12 GLL5        0.0000 
     14 CA         84.7200  -16.5120   47.4460 C.3       8 GLP5        0.0000 
     15 CA         83.8250  -13.1105   46.9905 C.3       4 GLC5        0.0000 
     16 CA         84.5880  -11.4800   46.0270 C.3      12 GLL5        0.0000 
     17 CA         83.0620  -14.7410   47.9540 C.3       8 GLP5        0.0000 
     18 CA         82.9145  -11.5425   44.5820 C.3       4 GLC5        0.0000 
     19 CA         81.2410  -11.6050   43.1370 C.3       8 GLP5        0.0000 
     20 CA         83.7220  -13.8580   46.0690 C.3       4 GLC5        0.0000 
     21 CA         84.3820  -12.9750   44.1840 C.3      12 GLL5        0.0000 
     22 CA         82.8115  -12.2900   43.6605 C.3       4 GLC5        0.0000 
     23 CA         87.3975  -13.5905   42.7475 C.3       4 GLC5        0.0000 
     24 CA         85.3610  -13.5160   43.1270 C.3      12 GLL5        0.0000 
     25 CA         89.4340  -13.6650   42.3680 C.3       8 GLP5        0.0000 
     26 N          87.3795  -12.5120   43.4645 N.am      2 SEC2        0.0000 
     27 N          86.2530  -12.5470   42.6300 N.am     10 SEL2        0.0000 
     28 N          88.5060  -12.4770   44.2990 N.am      6 SEP2        0.0000 
     29 N          84.7345  -12.9885   40.1235 N.am      2 SEC2        0.0000 
     30 N          83.8870  -13.0040   41.3100 N.am     10 SEL2        0.0000 
     31 N          85.5820  -12.9730   38.9370 N.am      6 SEP2        0.0000 
     32 N          83.2170  -11.7580   41.3560 N.am      2 SEC2        0.0000 
     33 N          82.5470  -10.5120   41.4020 N.am      6 SEP2        0.0000 
     34 N          83.2850  -18.9075   46.5030 N.am      2 SEC2        0.0000 
     35 N          83.4310  -18.4130   45.3190 N.am     10 SEL2        0.0000 
     36 N          83.1390  -19.4020   47.6870 N.am      6 SEP2        0.0000 
     37 NZ         86.4135  -19.1190   45.3360 N.4       3 LYC4        0.0000 
     38 NZ         85.9200  -18.1490   44.6590 N.4      11 LYL4        0.0000 
     39 NZ         87.6710  -19.8490   47.0680 N.4       7 LYP4        0.0000 
     40 N          87.1445  -17.8545   43.9420 N.am      2 SEC2        0.0000 
     41 N          85.9200  -18.1490   44.6590 N.am     10 SEL2        0.0000 
     42 N          88.3690  -17.5600   43.2250 N.am      6 SEP2        0.0000 
     43 N          86.4135  -19.1190   45.3360 N.am      2 SEC2        0.0000 
     44 N          86.9070  -20.0890   46.0130 N.am      6 SEP2        0.0000 
     45 N          86.9465  -18.3720   46.0205 N.am      2 SEC2        0.0000 
     46 N          87.9730  -18.5950   47.3820 N.am      6 SEP2        0.0000 
     47 N          83.9285  -21.3815   44.7225 N.am      2 SEC2        0.0000 
     48 N          84.5680  -21.0670   43.5180 N.am     10 SEL2        0.0000 
     49 N          83.2890  -21.6960   45.9270 N.am      6 SEP2        0.0000 
     50 CA         81.8880  -18.1010   40.7430 C.3       4 GLC5        0.0000 
     51 CA         81.3290  -19.6530   41.9680 C.3      12 GLL5        0.0000 
     52 CA         82.4470  -16.5490   39.5180 C.3       8 GLP5        0.0000 
     53 CA         78.1685  -19.9860   42.8260 C.3       4 GLC5        0.0000 
     54 CA         80.0150  -20.3800   41.8440 C.3      12 GLL5        0.0000 
     55 CA         76.3220  -19.5920   43.8080 C.3       8 GLP5        0.0000 
     56 CA         77.2505  -20.0650   42.1725 C.3       4 GLC5        0.0000 
     57 CA         78.1790  -20.5380   40.5370 C.3      12 GLL5        0.0000 
     58 CA         78.2110  -18.4945   40.9570 C.3       4 GLC5        0.0000 
     59 CA         78.2430  -16.4510   41.3770 C.3       8 GLP5        0.0000 
     60 N          79.2195  -24.2385   40.3425 N.am      2 SEC2        0.0000 
     61 N          78.3920  -22.8900   39.8250 N.am     10 SEL2        0.0000 
     62 N          80.0470  -25.5870   40.8600 N.am      6 SEP2        0.0000 
     63 O          77.5055  -23.4070   40.5355 O.2       1 ALC1        0.0000 
     64 O          78.3920  -22.8900   39.8250 O.2       9 ALL1        0.0000 
     65 O          76.6190  -23.9240   41.2460 O.2       5 ALP1        0.0000 
     66 N          79.8345  -24.1455   41.5065 N.am      2 SEC2        0.0000 
     67 N          79.6220  -22.7040   42.1530 N.am     10 SEL2        0.0000 
     68 O          78.1205  -23.3140   41.6995 O.2       1 ALC1        0.0000 
     69 O          79.6220  -22.7040   42.1530 O.2       9 ALL1        0.0000 
     70 O          78.3360  -22.8500   42.6675 O.2       1 ALC1        0.0000 
     71 O          77.0500  -22.9960   43.1820 O.2       5 ALP1        0.0000 
     72 CA         72.5920  -20.1285   37.9850 C.3       4 GLC5        0.0000 
     73 CA         74.2790  -18.7100   38.2010 C.3      12 GLL5        0.0000 
     74 CA         70.9050  -21.5470   37.7690 C.3       8 GLP5        0.0000 
     75 CA         73.8805  -16.9200   38.6015 C.3       4 GLC5        0.0000 
     76 CA         73.4820  -15.1300   39.0020 C.3       8 GLP5        0.0000 
     77 O          74.4845  -16.6985   36.5315 O.2       1 ALC1        0.0000 
     78 O          73.8020  -18.1120   37.1340 O.2       9 ALL1        0.0000 
     79 O          75.1670  -15.2850   35.9290 O.2       5 ALP1        0.0000 
     80 CA         76.1645  -19.6405   41.6980 C.3       4 GLC5        0.0000 
     81 CA         76.0070  -19.6890   39.5880 C.3      12 GLL5        0.0000 
     82 CA         75.1075  -19.6285   42.0940 C.3       4 GLC5        0.0000 
     83 CA         73.8930  -19.6650   40.3800 C.3      12 GLL5        0.0000 
     84 CA         72.0655  -19.9795   41.0345 C.3       4 GLC5        0.0000 
     85 CA         70.2380  -20.2940   41.6890 C.3       8 GLP5        0.0000 
     86 CA         73.8330  -21.5265   41.2050 C.3       4 GLC5        0.0000 
     87 CA         73.7730  -23.3880   42.0300 C.3       8 GLP5        0.0000 
     88 CA         72.3990  -20.6060   39.0745 C.3       4 GLC5        0.0000 
     89 CA         75.4070  -18.0445   40.4970 C.3       4 GLC5        0.0000 
     90 CA         76.9210  -16.4240   40.6140 C.3       8 GLP5        0.0000 
     91 CA         83.0455  -11.4760   47.1540 C.3       4 GLC5        0.0000 
     92 CA         84.9980  -11.0760   47.2810 C.3      12 GLL5        0.0000 
     93 CA         81.2980  -11.6740   47.6540 C.3       8 GLP5        0.0000 
     94 CA         85.0175   -9.6855   45.3735 C.3       4 GLC5        0.0000 
     95 CA         85.2420   -8.0930   44.0930 C.3       8 GLP5        0.0000 
     96 CA         87.5332  -13.0360   48.6662 C.3       4 GLC5        0.0000 
     97 CA         89.1150  -13.4850   49.5790 C.3       8 GLP5        0.0000 
     98 CA         87.3287  -14.4467   46.3840 C.3       4 GLC5        0.0000 
     99 CA         86.1180  -13.2060   47.4910 C.3      12 GLL5        0.0000 
    100 CA         88.7570  -15.5070   45.9070 C.3       8 GLP5        0.0000 
    101 CA         84.6849  -12.1665   48.9869 C.3       4 GLC5        0.0000 
    102 CA         83.6150  -11.9690   50.4040 C.3       8 GLP5        0.0000 
    103 CA         84.4084  -13.5525   47.7619 C.3       4 GLC5        0.0000 
    104 CA         85.6748  -15.4618   42.1210 C.3       4 GLC5        0.0000 
    105 CA         86.4980  -17.1300   41.6190 C.3       8 GLP5        0.0000 
    106 CA         85.8123  -13.1733   41.0510 C.3       4 GLC5        0.0000 
    107 CA         84.3420  -14.0710   42.1190 C.3      12 GLL5        0.0000 
    108 CA         86.7730  -12.5530   39.4790 C.3       8 GLP5        0.0000 
    109 CA         82.5128  -12.9650   42.8605 C.3       4 GLC5        0.0000 
    110 CA         84.8468  -16.2275   42.3813 C.3       4 GLC5        0.0000 
    111 CA         83.2270  -14.5790   43.0490 C.3      12 GLL5        0.0000 
    112 CA         82.9606  -15.8735   41.2145 C.3       4 GLC5        0.0000 
    113 CA         83.1640  -16.0710   43.2380 C.3      12 GLL5        0.0000 
    114 CA         79.4575  -18.2338   41.6415 C.3       4 GLC5        0.0000 
    115 CA         80.7810  -21.6094   43.2390 C.3       4 GLC5        0.0000 
    116 CA         81.1930  -22.3290   44.9250 C.3       8 GLP5        0.0000 
    117 CA         75.6758  -17.2475   37.4245 C.3       4 GLC5        0.0000 
    118 CA         75.6420  -19.0580   38.3890 C.3      12 GLL5        0.0000 
    119 CA         76.3910  -15.6110   36.5540 C.3       8 GLP5        0.0000 
    120 CA         76.2024  -17.8552   39.7777 C.3       4 GLC5        0.0000 
@<TRIPOS>BOND
@<TRIPOS>SUBSTRUCTURE
     1 ALC1        4 GROUP        1 X    ALC  0     ROOT ALC X 1
     2 SEC2        1 GROUP        1 X    SEC  0     **** SEC X 2
     3 LYC4       37 GROUP        1 X    LYC  0     **** LYC X 4
     4 GLC5        9 GROUP        1 X    GLC  0     **** GLC X 6
     5 ALP1        6 GROUP        1 Y    ALP  0     ROOT ALP Y 8
     6 SEP2        3 GROUP        1 Y    SEP  0     **** SEP Y 9
     7 LYP4       39 GROUP        1 Y    LYP  0     **** LYP Y 11
     8 GLP5       11 GROUP        1 Y    GLP  0     **** GLP Y 13
     9 ALL1        5 GROUP        1 Z    ALL  0     ROOT ALL Z 15
    10 SEL2        2 GROUP        1 Z    SEL  0     **** SEL Z 16
    11 LYL4       38 GROUP        1 Z    LYL  0     **** LYL Z 18
    12 GLL5       10 GROUP        1 Z    GLL  0     **** GLL Z 20
@<TRIPOS>SET

