#    Name: 2hcy_8ID_1_ligand
#    Modification time : Tue Mar 25 15:53:39 2014

@<TRIPOS>MOLECULE
2hcy_8ID_1_ligand
   70    74     1     0     0
SMALL
NO_CHARGES


@<TRIPOS>ATOM
      1 O7N        85.1580   -9.3780   48.9080 O.2       1 8ID350      0.0000 
      2 C7N        84.6360   -9.7320   47.8500 C.2       1 8ID350      0.0000 
      3 N7N        83.7550   -8.9680   47.1960 N.am      1 8ID350      0.0000 
      4 C3N        84.9980  -11.0760   47.2810 C.ar      1 8ID350      0.0000 
      5 C4N        85.7850  -11.9680   48.0160 C.ar      1 8ID350      0.0000 
      6 C5N        86.1180  -13.2060   47.4910 C.ar      1 8ID350      0.0000 
      7 C6N        85.6830  -13.5670   46.2310 C.ar      1 8ID350      0.0000 
      8 C2N        84.5880  -11.4800   46.0270 C.ar      1 8ID350      0.0000 
      9 N1N        84.9300  -12.6920   45.5380 N.pl3     1 8ID350      0.0000 
     10 C1'        84.3820  -12.9750   44.1840 C.3       1 8ID350      0.0000 
     11 C2'        85.3610  -13.5160   43.1270 C.3       1 8ID350      0.0000 
     12 O2'        86.2530  -12.5470   42.6300 O.3       1 8ID350      0.0000 
     13 C3'        84.3420  -14.0710   42.1190 C.3       1 8ID350      0.0000 
     14 O3'        83.8870  -13.0040   41.3100 O.3       1 8ID350      0.0000 
     15 O4'        83.4070  -13.9380   44.3470 O.3       1 8ID350      0.0000 
     16 C4'        83.2270  -14.5790   43.0490 C.3       1 8ID350      0.0000 
     17 C5'        83.1640  -16.0710   43.2380 C.3       1 8ID350      0.0000 
     18 O5'        84.3760  -16.4810   43.8970 O.3       1 8ID350      0.0000 
     19 PN         84.4770  -18.0120   44.3550 P.3       1 8ID350      0.0000 
     20 O1N        83.4310  -18.4130   45.3190 O.co2     1 8ID350      0.0000 
     21 O2N        85.9200  -18.1490   44.6590 O.co2     1 8ID350      0.0000 
     22 OPP        84.0680  -18.7160   42.9510 O.3       1 8ID350      0.0000 
     23 PA         83.8530  -20.2180   42.5220 P.3       1 8ID350      0.0000 
     24 O1A        84.5680  -21.0670   43.5180 O.co2     1 8ID350      0.0000 
     25 O2A        84.2880  -20.3570   41.0830 O.co2     1 8ID350      0.0000 
     26 O5B        82.2810  -20.4700   42.7100 O.3       1 8ID350      0.0000 
     27 C5B        81.3290  -19.6530   41.9680 C.3       1 8ID350      0.0000 
     28 C4B        80.0150  -20.3800   41.8440 C.3       1 8ID350      0.0000 
     29 O4B        79.1030  -19.6390   41.0220 O.3       1 8ID350      0.0000 
     30 C1B        78.1790  -20.5380   40.5370 C.3       1 8ID350      0.0000 
     31 C2B        79.0780  -21.6830   40.0470 C.3       1 8ID350      0.0000 
     32 O2B        78.3920  -22.8900   39.8250 O.3       1 8ID350      0.0000 
     33 C3B        80.0660  -21.7630   41.2000 C.3       1 8ID350      0.0000 
     34 O3B        79.6220  -22.7040   42.1530 O.3       1 8ID350      0.0000 
     35 N9A        77.3570  -19.9040   39.5190 N.pl3     1 8ID350      0.0000 
     36 C8A        77.6880  -19.3890   38.2840 C.2       1 8ID350      0.0000 
     37 N7A        76.7220  -18.8710   37.5610 N.2       1 8ID350      0.0000 
     38 C5A        75.6420  -19.0580   38.3890 C.ar      1 8ID350      0.0000 
     39 C6A        74.2790  -18.7100   38.2010 C.ar      1 8ID350      0.0000 
     40 N6A        73.8020  -18.1120   37.1340 N.pl3     1 8ID350      0.0000 
     41 C4A        76.0070  -19.6890   39.5880 C.ar      1 8ID350      0.0000 
     42 N3A        75.1530  -20.0040   40.5950 N.ar      1 8ID350      0.0000 
     43 C2A        73.8930  -19.6650   40.3800 C.ar      1 8ID350      0.0000 
     44 N1A        73.4480  -19.0560   39.2540 N.ar      1 8ID350      0.0000 
     45 H          83.3920   -9.3457   46.3442 H         1 8ID350      0.0000 
     46 H          83.5381   -8.0874   47.6173 H         1 8ID350      0.0000 
     47 H          86.1166  -11.6974   48.9537 H         1 8ID350      0.0000 
     48 H          86.6936  -13.8598   48.0453 H         1 8ID350      0.0000 
     49 H          85.9364  -14.4843   45.8462 H         1 8ID350      0.0000 
     50 H          84.0040  -10.8290   45.4563 H         1 8ID350      0.0000 
     51 H          83.9341  -12.0634   43.7812 H         1 8ID350      0.0000 
     52 H          85.8330  -14.3773   43.5822 H         1 8ID350      0.0000 
     53 H          84.7680  -14.8719   41.6208 H         1 8ID350      0.0000 
     54 H          82.2711  -14.2355   42.6311 H         1 8ID350      0.0000 
     55 H          83.0644  -16.5424   42.2616 H         1 8ID350      0.0000 
     56 H          82.2866  -16.3100   43.8367 H         1 8ID350      0.0000 
     57 H          81.7064  -19.4349   40.9631 H         1 8ID350      0.0000 
     58 H          81.1564  -18.6994   42.4785 H         1 8ID350      0.0000 
     59 H          79.5695  -20.5007   42.8351 H         1 8ID350      0.0000 
     60 H          77.5803  -20.9332   41.3438 H         1 8ID350      0.0000 
     61 H          79.6178  -21.3088   39.1984 H         1 8ID350      0.0000 
     62 H          81.0266  -21.9325   40.8317 H         1 8ID350      0.0000 
     63 H          78.6655  -19.4241   37.9684 H         1 8ID350      0.0000 
     64 H          74.1829  -17.2107   36.9275 H         1 8ID350      0.0000 
     65 H          73.1014  -18.6124   36.6254 H         1 8ID350      0.0000 
     66 H          73.1640  -19.8808   41.1396 H         1 8ID350      0.0000 
     67 H          86.8207  -13.0341   41.9664 H         1 8ID350      0.0000 
     68 H          83.1629  -13.3987   40.7444 H         1 8ID350      0.0000 
     69 H          77.7499  -22.9667   40.5878 H         1 8ID350      0.0000 
     70 H          78.6443  -22.5229   42.2594 H         1 8ID350      0.0000 
@<TRIPOS>BOND
     1    2    1 2    
     2    3    2 am   
     3    4    2 1    
     4   45    3 1    
     5   46    3 1    
     6    5    4 ar   
     7    8    4 ar   
     8    6    5 ar   
     9   47    5 1    
    10    7    6 ar   
    11   48    6 1    
    12    9    7 ar   
    13   49    7 1    
    14    9    8 ar   
    15   50    8 1    
    16   10    9 1    
    17   11   10 1    
    18   15   10 1    
    19   51   10 1    
    20   12   11 1    
    21   13   11 1    
    22   52   11 1    
    23   67   12 1    
    24   14   13 1    
    25   16   13 1    
    26   53   13 1    
    27   68   14 1    
    28   16   15 1    
    29   17   16 1    
    30   54   16 1    
    31   18   17 1    
    32   55   17 1    
    33   56   17 1    
    34   19   18 1    
    35   20   19 ar   
    36   21   19 ar   
    37   22   19 1    
    38   23   22 1    
    39   24   23 ar   
    40   25   23 ar   
    41   26   23 1    
    42   27   26 1    
    43   28   27 1    
    44   57   27 1    
    45   58   27 1    
    46   29   28 1    
    47   33   28 1    
    48   59   28 1    
    49   30   29 1    
    50   31   30 1    
    51   35   30 1    
    52   60   30 1    
    53   32   31 1    
    54   33   31 1    
    55   61   31 1    
    56   69   32 1    
    57   34   33 1    
    58   62   33 1    
    59   70   34 1    
    60   36   35 1    
    61   41   35 1    
    62   37   36 2    
    63   63   36 1    
    64   38   37 1    
    65   39   38 ar   
    66   41   38 ar   
    67   40   39 1    
    68   44   39 ar   
    69   64   40 1    
    70   65   40 1    
    71   42   41 ar   
    72   43   42 ar   
    73   44   43 ar   
    74   66   43 1    
@<TRIPOS>SUBSTRUCTURE
     1 8ID350      1 GROUP   
@<TRIPOS>SET

