#    Name: 1h2b_NAJ_2_INTS_M
#    Modification time : Tue Mar 25 04:22:48 2014

@<TRIPOS>MOLECULE
1h2b_NAJ_2_INTS_M
  117     0    12     0     0
SMALL
NO_CHARGES


@<TRIPOS>ATOM
      1 N         104.3420  -21.6045   39.2770 N.am      2 SEC2        0.0000 
      2 N         105.3780  -22.0360   38.5030 N.am     10 SEL2        0.0000 
      3 N         103.3060  -21.1730   40.0510 N.am      6 SEP2        0.0000 
      4 N         106.2835  -22.7555   34.6950 N.am      2 SEC2        0.0000 
      5 N         105.8440  -22.8470   36.0500 N.am     10 SEL2        0.0000 
      6 N         106.7230  -22.6640   33.3400 N.am      6 SEP2        0.0000 
      7 CA        109.5320  -17.9920   36.4255 C.3       4 GLC5        0.0000 
      8 CA        108.6310  -19.4630   37.5170 C.3      12 GLL5        0.0000 
      9 CA        110.4330  -16.5210   35.3340 C.3       8 GLP5        0.0000 
     10 CA        108.5375  -17.2330   37.6105 C.3       4 GLC5        0.0000 
     11 CA        108.4440  -15.0030   37.7040 C.3       8 GLP5        0.0000 
     12 O         111.5340  -20.1655   36.8860 O.2       1 ALC1        0.0000 
     13 O         110.4680  -21.0410   37.1040 O.2       9 ALL1        0.0000 
     14 O         112.6000  -19.2900   36.6680 O.2       5 ALP1        0.0000 
     15 O         112.3920  -20.0860   39.1745 O.2       1 ALC1        0.0000 
     16 O         111.2980  -20.5140   39.7350 O.2       9 ALL1        0.0000 
     17 O         113.4860  -19.6580   38.6140 O.2       5 ALP1        0.0000 
     18 CA        110.3290  -17.4985   37.0975 C.3       4 GLC5        0.0000 
     19 CA        110.2250  -18.4760   38.8610 C.3      12 GLL5        0.0000 
     20 CA        109.3345  -16.7395   38.2825 C.3       4 GLC5        0.0000 
     21 CA        109.0180  -15.5145   40.4695 C.3       4 GLC5        0.0000 
     22 CA        110.9270  -15.6780   41.0780 C.3      12 GLL5        0.0000 
     23 CA        107.1090  -15.3510   39.8610 C.3       8 GLP5        0.0000 
     24 O         112.5985  -12.7190   39.6020 O.2       1 ALC1        0.0000 
     25 O         112.2640  -13.9830   40.1300 O.2       9 ALL1        0.0000 
     26 O         112.9330  -11.4550   39.0740 O.2       5 ALP1        0.0000 
     27 CA        111.7005  -13.3720   37.7250 C.3       4 GLC5        0.0000 
     28 CA        112.3820  -14.6880   38.9450 C.3      12 GLL5        0.0000 
     29 CA        111.0190  -12.0560   36.5050 C.3       8 GLP5        0.0000 
     30 CA        111.4075  -15.6045   37.1395 C.3       4 GLC5        0.0000 
     31 CA        113.6540  -15.8705   38.3345 C.3       4 GLC5        0.0000 
     32 CA        114.9260  -17.0530   37.7240 C.3       8 GLP5        0.0000 
     33 CA        113.4545  -15.4575   40.5590 C.3       4 GLC5        0.0000 
     34 CA        114.5270  -16.2270   42.1730 C.3       8 GLP5        0.0000 
     35 CA        114.0630  -13.7605   39.5625 C.3       4 GLC5        0.0000 
     36 CA        115.7440  -12.8330   40.1800 C.3       8 GLP5        0.0000 
     37 CA        110.4130  -14.8455   38.3245 C.3       4 GLC5        0.0000 
     38 CA        110.7355  -13.4495   39.5520 C.3       4 GLC5        0.0000 
     39 CA        109.0890  -12.2110   40.1590 C.3       8 GLP5        0.0000 
     40 CA        112.9875  -16.7100   38.8070 C.3       4 GLC5        0.0000 
     41 CA        111.0490  -16.3670   39.8900 C.3      12 GLL5        0.0000 
     42 CA        112.2255  -17.4720   41.0085 C.3       4 GLC5        0.0000 
     43 CA        113.4020  -18.5770   42.1270 C.3       8 GLP5        0.0000 
     44 CA        109.7465  -15.6850   38.7970 C.3       4 GLC5        0.0000 
     45 NZ        102.5310  -22.9485   34.2995 N.4       3 LYC4        0.0000 
     46 NZ        102.5310  -21.8640   35.1180 N.4      11 LYL4        0.0000 
     47 NZ        101.7020  -24.4460   32.5140 N.4       7 LYP4        0.0000 
     48 N         101.4920  -22.3935   35.9965 N.am      2 SEC2        0.0000 
     49 N         102.5310  -21.8640   35.1180 N.am     10 SEL2        0.0000 
     50 N         100.4530  -22.9230   36.8750 N.am      6 SEP2        0.0000 
     51 N         102.5310  -22.9485   34.2995 N.am      2 SEC2        0.0000 
     52 N         102.5310  -24.0330   33.4810 N.am      6 SEP2        0.0000 
     53 N         104.9080  -20.9135   32.7610 N.am      2 SEC2        0.0000 
     54 N         104.5330  -20.6650   34.1160 N.am     10 SEL2        0.0000 
     55 N         105.2830  -21.1620   31.4060 N.am      6 SEP2        0.0000 
     56 CA        102.4820  -19.7095   36.8715 C.3       4 GLC5        0.0000 
     57 CA        103.4100  -18.2320   35.4960 C.3      12 GLL5        0.0000 
     58 CA        101.5540  -21.1870   38.2470 C.3       8 GLP5        0.0000 
     59 CA        102.8295  -19.2350   33.5730 C.3       4 GLC5        0.0000 
     60 CA        102.2490  -20.2380   31.6500 C.3       8 GLP5        0.0000 
     61 CA        104.1900  -16.1045   36.8140 C.3       4 GLC5        0.0000 
     62 CA        102.4700  -17.1370   35.9740 C.3      12 GLL5        0.0000 
     63 CA        105.9100  -15.0720   37.6540 C.3       8 GLP5        0.0000 
     64 N         100.2730  -16.9390   39.1720 N.am      2 SEC2        0.0000 
     65 N         101.2250  -16.3790   37.8830 N.am     10 SEL2        0.0000 
     66 N          99.3210  -17.4990   40.4610 N.am      6 SEP2        0.0000 
     67 N         100.8065  -14.8370   37.8045 N.am      2 SEC2        0.0000 
     68 N         100.3880  -13.2950   37.7260 N.am      6 SEP2        0.0000 
     69 O         102.5025  -15.8290   38.3560 O.2       1 ALC1        0.0000 
     70 O         101.2250  -16.3790   37.8830 O.2       9 ALL1        0.0000 
     71 O         103.7800  -15.2790   38.8290 O.2       5 ALP1        0.0000 
     72 CA         99.1810  -17.9820   38.2490 C.3       4 GLC5        0.0000 
     73 CA        100.3020  -18.0620   36.4020 C.3      12 GLL5        0.0000 
     74 CA         98.0600  -17.9020   40.0960 C.3       8 GLP5        0.0000 
     75 N          97.9230  -18.7175   36.5710 N.am      2 SEC2        0.0000 
     76 N          99.1310  -18.0750   37.1690 N.am     10 SEL2        0.0000 
     77 N          96.7150  -19.3600   35.9730 N.am      6 SEP2        0.0000 
     78 CA        101.0930  -15.3155   35.5890 C.3       4 GLC5        0.0000 
     79 CA        100.2440  -16.9930   35.2960 C.3      12 GLL5        0.0000 
     80 CA        101.9420  -13.6380   35.8820 C.3       8 GLP5        0.0000 
     81 N          96.4795  -15.0885   29.2770 N.am      2 SEC2        0.0000 
     82 N          96.8630  -15.3530   30.5670 N.am     10 SEL2        0.0000 
     83 N          96.0960  -14.8240   27.9870 N.am      6 SEP2        0.0000 
     84 O          98.9580  -13.5420   32.9650 O.2       1 ALC1        0.0000 
     85 O          97.9060  -13.8280   31.9610 O.2       9 ALL1        0.0000 
     86 O         100.0100  -13.2560   33.9690 O.2       5 ALP1        0.0000 
     87 O          97.9470  -12.7405   30.9930 O.2       1 ALC1        0.0000 
     88 O          97.9880  -11.6530   30.0250 O.2       5 ALP1        0.0000 
     89 CA        100.7715  -19.3705   32.6040 C.3       4 GLC5        0.0000 
     90 CA         99.2940  -18.5030   33.5580 C.3      12 GLL5        0.0000 
     91 CA        108.6658  -20.8021   36.0282 C.3       4 GLC5        0.0000 
     92 CA        107.1350  -19.6620   37.6930 C.3      12 GLL5        0.0000 
     93 CA        108.6520  -21.5140   34.2270 C.3       8 GLP5        0.0000 
     94 CA        111.2805  -21.5583   38.1560 C.3       4 GLC5        0.0000 
     95 CA        109.4760  -20.6180   38.0540 C.3      12 GLL5        0.0000 
     96 CA        112.7930  -22.8370   37.6420 C.3       8 GLP5        0.0000 
     97 CA        112.8898  -15.6520   41.6583 C.3       4 GLC5        0.0000 
     98 CA        110.1707  -13.6440   40.6512 C.3       4 GLC5        0.0000 
     99 CA        111.5780  -14.4760   41.2090 C.3      12 GLL5        0.0000 
    100 CA        101.9780  -15.4925   36.2160 C.3       4 GLC5        0.0000 
    101 CA        101.2420  -19.4982   37.5055 C.3       4 GLC5        0.0000 
    102 CA        101.5580  -17.5570   37.1260 C.3      12 GLL5        0.0000 
    103 CA         98.6225  -16.5882   36.2395 C.3       4 GLC5        0.0000 
    104 CA         96.9720  -15.6490   36.6300 C.3       8 GLP5        0.0000 
    105 CA        100.3660  -17.0230   31.8905 C.3       4 GLC5        0.0000 
    106 CA         98.9430  -16.1500   33.4670 C.3      12 GLL5        0.0000 
    107 CA        102.1590  -17.8190   30.8940 C.3       8 GLP5        0.0000 
    108 CA        100.0905  -15.2380   32.0755 C.3       4 GLC5        0.0000 
    109 CA        101.6080  -14.2490   31.2640 C.3       8 GLP5        0.0000 
    110 CA         98.9295  -16.4668   30.4657 C.3       4 GLC5        0.0000 
    111 CA         98.2030  -16.3040   32.3070 C.3      12 GLL5        0.0000 
    112 CA         99.7930  -15.9850   28.9070 C.3       8 GLP5        0.0000 
    113 CA        100.2118  -17.9770   31.4765 C.3       4 GLC5        0.0000 
    114 CA         97.9290  -17.5930   31.7420 C.3      12 GLL5        0.0000 
    115 CA         98.8095  -20.2840   33.6035 C.3       4 GLC5        0.0000 
    116 CA         98.6000  -18.6770   32.3760 C.3      12 GLL5        0.0000 
    117 CA         98.6720  -21.9780   34.2400 C.3       8 GLP5        0.0000 
@<TRIPOS>BOND
@<TRIPOS>SUBSTRUCTURE
     1 ALC1       12 GROUP        1 X    ALC  0     ROOT ALC X 1
     2 SEC2        1 GROUP        1 X    SEC  0     **** SEC X 2
     3 LYC4       45 GROUP        1 X    LYC  0     **** LYC X 4
     4 GLC5        7 GROUP        1 X    GLC  0     **** GLC X 6
     5 ALP1       14 GROUP        1 Y    ALP  0     ROOT ALP Y 8
     6 SEP2        3 GROUP        1 Y    SEP  0     **** SEP Y 9
     7 LYP4       47 GROUP        1 Y    LYP  0     **** LYP Y 11
     8 GLP5        9 GROUP        1 Y    GLP  0     **** GLP Y 13
     9 ALL1       13 GROUP        1 Z    ALL  0     ROOT ALL Z 15
    10 SEL2        2 GROUP        1 Z    SEL  0     **** SEL Z 16
    11 LYL4       46 GROUP        1 Z    LYL  0     **** LYL Z 18
    12 GLL5        8 GROUP        1 Z    GLL  0     **** GLL Z 20
@<TRIPOS>SET

