#    Name: 1h2b_NAJ_2_ligand
#    Modification time : Tue Mar 25 04:22:48 2014

@<TRIPOS>MOLECULE
1h2b_NAJ_2_ligand
   71    75     1     0     0
SMALL
NO_CHARGES


@<TRIPOS>ATOM
      1 PA        105.5700  -21.7100   37.0480 P.3       1 NAJ1361     0.0000 
      2 O1A       105.3780  -22.0360   38.5030 O.co2     1 NAJ1361     0.0000 
      3 O2A       105.8440  -22.8470   36.0500 O.co2     1 NAJ1361     0.0000 
      4 O5B       106.8200  -20.7460   36.8080 O.3       1 NAJ1361     0.0000 
      5 C5B       107.1350  -19.6620   37.6930 C.3       1 NAJ1361     0.0000 
      6 C4B       108.6310  -19.4630   37.5170 C.3       1 NAJ1361     0.0000 
      7 O4B       108.9760  -18.2530   38.2210 O.3       1 NAJ1361     0.0000 
      8 C3B       109.4760  -20.6180   38.0540 C.3       1 NAJ1361     0.0000 
      9 O3B       110.4680  -21.0410   37.1040 O.3       1 NAJ1361     0.0000 
     10 C2B       110.0600  -19.9410   39.2860 C.3       1 NAJ1361     0.0000 
     11 O2B       111.2980  -20.5140   39.7350 O.3       1 NAJ1361     0.0000 
     12 C1B       110.2250  -18.4760   38.8610 C.3       1 NAJ1361     0.0000 
     13 N9A       110.3350  -17.5200   39.9620 N.pl3     1 NAJ1361     0.0000 
     14 C8A       109.7610  -17.5350   41.2410 C.2       1 NAJ1361     0.0000 
     15 N7A       110.1240  -16.4060   41.9080 N.2       1 NAJ1361     0.0000 
     16 C5A       110.9270  -15.6780   41.0780 C.ar      1 NAJ1361     0.0000 
     17 C6A       111.5780  -14.4760   41.2090 C.ar      1 NAJ1361     0.0000 
     18 N6A       111.5560  -13.7530   42.3370 N.pl3     1 NAJ1361     0.0000 
     19 N1A       112.2640  -13.9830   40.1300 N.pl3     1 NAJ1361     0.0000 
     20 C2A       112.3820  -14.6880   38.9450 C.ar      1 NAJ1361     0.0000 
     21 N3A       111.7590  -15.8820   38.8370 N.ar      1 NAJ1361     0.0000 
     22 C4A       111.0490  -16.3670   39.8900 C.ar      1 NAJ1361     0.0000 
     23 O3        104.2940  -20.8650   36.6190 O.3       1 NAJ1361     0.0000 
     24 PN        103.5360  -20.8100   35.1950 P.3       1 NAJ1361     0.0000 
     25 O1N       102.5310  -21.8640   35.1180 O.co2     1 NAJ1361     0.0000 
     26 O2N       104.5330  -20.6650   34.1160 O.co2     1 NAJ1361     0.0000 
     27 O5D       102.6920  -19.4610   35.4100 O.3       1 NAJ1361     0.0000 
     28 C5D       103.4100  -18.2320   35.4960 C.3       1 NAJ1361     0.0000 
     29 C4D       102.4700  -17.1370   35.9740 C.3       1 NAJ1361     0.0000 
     30 O4D       101.5800  -16.8170   34.8900 O.3       1 NAJ1361     0.0000 
     31 C3D       101.5580  -17.5570   37.1260 C.3       1 NAJ1361     0.0000 
     32 O3D       101.2250  -16.3790   37.8830 O.3       1 NAJ1361     0.0000 
     33 C2D       100.3020  -18.0620   36.4020 C.3       1 NAJ1361     0.0000 
     34 O2D        99.1310  -18.0750   37.1690 O.3       1 NAJ1361     0.0000 
     35 C1D       100.2440  -16.9930   35.2960 C.3       1 NAJ1361     0.0000 
     36 N1N        99.4130  -17.2510   34.1200 N.pl3     1 NAJ1361     0.0000 
     37 C2N        98.9430  -16.1500   33.4670 C.ar      1 NAJ1361     0.0000 
     38 C3N        98.2030  -16.3040   32.3070 C.ar      1 NAJ1361     0.0000 
     39 C7N        97.6400  -15.0960   31.6330 C.2       1 NAJ1361     0.0000 
     40 O7N        96.8630  -15.3530   30.5670 O.2       1 NAJ1361     0.0000 
     41 N7N        97.9060  -13.8280   31.9610 N.am      1 NAJ1361     0.0000 
     42 C4N        97.9290  -17.5930   31.7420 C.ar      1 NAJ1361     0.0000 
     43 C5N        98.6000  -18.6770   32.3760 C.ar      1 NAJ1361     0.0000 
     44 C6N        99.2940  -18.5030   33.5580 C.ar      1 NAJ1361     0.0000 
     45 H         106.9420  -19.9108   38.7196 H         1 NAJ1361     0.0000 
     46 H         106.6344  -18.7544   37.4126 H         1 NAJ1361     0.0000 
     47 H         108.8379  -19.3406   36.4618 H         1 NAJ1361     0.0000 
     48 H         108.8139  -21.3747   38.3756 H         1 NAJ1361     0.0000 
     49 H         109.2947  -19.9540   40.0548 H         1 NAJ1361     0.0000 
     50 H         111.0118  -18.4096   38.1689 H         1 NAJ1361     0.0000 
     51 H         109.2034  -18.2411   41.5718 H         1 NAJ1361     0.0000 
     52 H         112.0861  -12.9051   42.3266 H         1 NAJ1361     0.0000 
     53 H         111.0114  -14.1260   43.0882 H         1 NAJ1361     0.0000 
     54 H         112.7170  -13.0399   40.1988 H         1 NAJ1361     0.0000 
     55 H         112.9351  -14.2986   38.1726 H         1 NAJ1361     0.0000 
     56 H         103.8148  -17.9293   34.5249 H         1 NAJ1361     0.0000 
     57 H         104.2417  -18.2963   36.2051 H         1 NAJ1361     0.0000 
     58 H         103.0252  -16.2762   36.2633 H         1 NAJ1361     0.0000 
     59 H         101.9898  -18.3168   37.6609 H         1 NAJ1361     0.0000 
     60 H         100.5591  -18.9743   35.9215 H         1 NAJ1361     0.0000 
     61 H          99.9141  -16.0570   35.7878 H         1 NAJ1361     0.0000 
     62 H          99.1329  -15.2023   33.8281 H         1 NAJ1361     0.0000 
     63 H          97.4906  -13.1271   31.3812 H         1 NAJ1361     0.0000 
     64 H          98.4966  -13.6940   32.7568 H         1 NAJ1361     0.0000 
     65 H          97.3271  -17.7131   30.9801 H         1 NAJ1361     0.0000 
     66 H          98.5562  -19.6084   31.9274 H         1 NAJ1361     0.0000 
     67 H          99.7268  -19.3203   34.0230 H         1 NAJ1361     0.0000 
     68 H         111.1480  -20.3078   37.0962 H         1 NAJ1361     0.0000 
     69 H         112.0035  -20.0726   39.1805 H         1 NAJ1361     0.0000 
     70 H         101.9437  -16.3040   38.5743 H         1 NAJ1361     0.0000 
     71 H          99.1956  -17.2662   37.7535 H         1 NAJ1361     0.0000 
@<TRIPOS>BOND
     1    2    1 ar   
     2    3    1 ar   
     3    4    1 1    
     4   23    1 1    
     5    5    4 1    
     6    6    5 1    
     7   45    5 1    
     8   46    5 1    
     9    7    6 1    
    10    8    6 1    
    11   47    6 1    
    12   12    7 1    
    13    9    8 1    
    14   10    8 1    
    15   48    8 1    
    16   68    9 1    
    17   11   10 1    
    18   12   10 1    
    19   49   10 1    
    20   69   11 1    
    21   13   12 1    
    22   50   12 1    
    23   14   13 1    
    24   22   13 1    
    25   15   14 2    
    26   51   14 1    
    27   16   15 1    
    28   17   16 ar   
    29   22   16 ar   
    30   18   17 1    
    31   19   17 ar   
    32   52   18 1    
    33   53   18 1    
    34   20   19 ar   
    35   54   19 1    
    36   21   20 ar   
    37   55   20 1    
    38   22   21 ar   
    39   24   23 1    
    40   25   24 ar   
    41   26   24 ar   
    42   27   24 1    
    43   28   27 1    
    44   29   28 1    
    45   56   28 1    
    46   57   28 1    
    47   30   29 1    
    48   31   29 1    
    49   58   29 1    
    50   35   30 1    
    51   32   31 1    
    52   33   31 1    
    53   59   31 1    
    54   70   32 1    
    55   34   33 1    
    56   35   33 1    
    57   60   33 1    
    58   71   34 1    
    59   36   35 1    
    60   61   35 1    
    61   37   36 ar   
    62   44   36 ar   
    63   38   37 ar   
    64   62   37 1    
    65   39   38 1    
    66   42   38 ar   
    67   40   39 2    
    68   41   39 am   
    69   63   41 1    
    70   64   41 1    
    71   43   42 ar   
    72   65   42 1    
    73   44   43 ar   
    74   66   43 1    
    75   67   44 1    
@<TRIPOS>SUBSTRUCTURE
     1 NAJ1361     1 GROUP   
@<TRIPOS>SET

