#    Name: 3w5r_LOA_1_INTS_M
#    Modification time : Tue Mar 25 02:19:57 2014

@<TRIPOS>MOLECULE
3w5r_LOA_1_INTS_M
   91     0     6     0     0
SMALL
NO_CHARGES


@<TRIPOS>ATOM
      1 CA         66.4300   16.5015   -6.3835 C.3       2 GLC5        0.0000 
      2 CA         65.4330   14.6850   -6.8880 C.3       6 GLL5        0.0000 
      3 CA         67.4270   18.3180   -5.8790 C.3       4 GLP5        0.0000 
      4 CA         65.1925   12.8455   -8.4230 C.3       2 GLC5        0.0000 
      5 CA         65.1100   13.1430   -6.4900 C.3       6 GLL5        0.0000 
      6 CA         65.2750   12.5480  -10.3560 C.3       4 GLP5        0.0000 
      7 CA         64.4160   13.9645   -4.3695 C.3       2 GLC5        0.0000 
      8 CA         63.5870   12.9540   -6.0530 C.3       6 GLL5        0.0000 
      9 CA         65.2450   14.9750   -2.6860 C.3       4 GLP5        0.0000 
     10 CA         62.2830   12.0435   -4.7550 C.3       2 GLC5        0.0000 
     11 CA         60.9790   11.1330   -3.4570 C.3       4 GLP5        0.0000 
     12 CA         61.5995   11.4415   -6.9305 C.3       2 GLC5        0.0000 
     13 CA         61.0410   13.2530   -6.8550 C.3       6 GLL5        0.0000 
     14 CA         62.1580    9.6300   -7.0060 C.3       4 GLP5        0.0000 
     15 CA         58.7910   13.6785   -4.6320 C.3       2 GLC5        0.0000 
     16 CA         60.7580   14.1130   -5.5310 C.3       6 GLL5        0.0000 
     17 CA         56.8240   13.2440   -3.7330 C.3       4 GLP5        0.0000 
     18 CA         64.6340   18.3835   -7.1940 C.3       2 GLC5        0.0000 
     19 CA         62.8570   17.4210   -6.4490 C.3       6 GLL5        0.0000 
     20 CA         66.4110   19.3460   -7.9390 C.3       4 GLP5        0.0000 
     21 CA         64.2595   19.3325   -5.4520 C.3       2 GLC5        0.0000 
     22 CA         62.5590   18.3240   -5.2060 C.3       6 GLL5        0.0000 
     23 CA         65.9600   20.3410   -5.6980 C.3       4 GLP5        0.0000 
     24 CA         58.0920   14.8695   -3.7810 C.3       2 GLC5        0.0000 
     25 CA         59.3600   16.4950   -3.8290 C.3       6 GLL5        0.0000 
     26 CA         57.8595   16.1375   -2.3040 C.3       2 GLC5        0.0000 
     27 CA         59.6690   17.3820   -2.6600 C.3       6 GLL5        0.0000 
     28 CA         56.0500   14.8930   -1.9480 C.3       4 GLP5        0.0000 
     29 CA         58.5670   19.3700   -6.6000 C.3       2 GLC5        0.0000 
     30 CA         60.0390   18.8240   -5.6570 C.3       6 GLL5        0.0000 
     31 CA         57.0950   19.9160   -7.5430 C.3       4 GLP5        0.0000 
     32 CA         60.9780   19.6610   -7.0525 C.3       2 GLC5        0.0000 
     33 CA         61.9170   20.4980   -8.4480 C.3       4 GLP5        0.0000 
     34 CA         58.8150   17.4355   -6.8000 C.3       2 GLC5        0.0000 
     35 CA         57.5910   16.0470   -7.9430 C.3       4 GLP5        0.0000 
     36 CA         62.0750   17.6170   -9.2800 C.3       2 GLC5        0.0000 
     37 CA         62.1590   15.5620   -8.8390 C.3       6 GLL5        0.0000 
     38 CA         61.9910   19.6720   -9.7210 C.3       4 GLP5        0.0000 
     39 CA         61.2655   13.6650   -9.5845 C.3       2 GLC5        0.0000 
     40 CA         60.3720   11.7680  -10.3300 C.3       4 GLP5        0.0000 
     41 CA         61.1955   15.8060  -10.2495 C.3       2 GLC5        0.0000 
     42 CA         60.2320   16.0500  -11.6600 C.3       4 GLP5        0.0000 
     43 CA         63.3275   20.9325   -2.4880 C.3       2 GLC5        0.0000 
     44 CA         61.5160   21.0220   -3.1050 C.3       6 GLL5        0.0000 
     45 CA         65.1390   20.8430   -1.8710 C.3       4 GLP5        0.0000 
     46 CA         60.1135   22.3890   -3.6150 C.3       2 GLC5        0.0000 
     47 CA         58.7110   23.7560   -4.1250 C.3       4 GLP5        0.0000 
     48 CA         62.2000   22.7185   -3.6295 C.3       2 GLC5        0.0000 
     49 CA         62.8840   24.4150   -4.1540 C.3       4 GLP5        0.0000 
     50 CA         58.4330   23.0290   -0.1305 C.3       2 GLC5        0.0000 
     51 CA         59.6780   21.3520   -0.5510 C.3       6 GLL5        0.0000 
     52 CA         57.1880   24.7060    0.2900 C.3       4 GLP5        0.0000 
     53 CA         58.3630   21.6385   -2.0035 C.3       2 GLC5        0.0000 
     54 CA         57.0480   21.9250   -3.4560 C.3       4 GLP5        0.0000 
     55 CA         60.4280   23.1205   -0.4965 C.3       2 GLC5        0.0000 
     56 CA         61.1780   24.8890   -0.4420 C.3       4 GLP5        0.0000 
     57 CA         68.9790   13.4380   -3.9455 C.3       2 GLC5        0.0000 
     58 CA         67.9990   11.5690   -4.4190 C.3       6 GLL5        0.0000 
     59 CA         69.9590   15.3070   -3.4720 C.3       4 GLP5        0.0000 
     60 CA         66.6200   12.2260   -2.8690 C.3       2 GLC5        0.0000 
     61 CA         65.2410   12.8830   -1.3190 C.3       4 GLP5        0.0000 
     62 CA         69.7925   11.4230   -5.1780 C.3       2 GLC5        0.0000 
     63 CA         71.5860   11.2770   -5.9370 C.3       4 GLP5        0.0000 
     64 CA         68.7725   10.3035   -3.4840 C.3       2 GLC5        0.0000 
     65 CA         69.5460    9.0380   -2.5490 C.3       4 GLP5        0.0000 
     66 CA         66.6625   10.4665   -3.5535 C.3       2 GLC5        0.0000 
     67 CA         65.3260    9.3640   -2.6880 C.3       4 GLP5        0.0000 
     68 N          57.9970   22.8090    0.3220 N.am      1 SEC2        0.0000 
     69 N          58.4510   21.8710    1.3430 N.am      5 SEL2        0.0000 
     70 N          57.5430   23.7470   -0.6990 N.am      3 SEP2        0.0000 
     71 CA         66.2415   15.7225   -8.6898 C.3       2 GLC5        0.0000 
     72 CA         64.4790   15.1970   -8.0590 C.3       6 GLL5        0.0000 
     73 CA         67.5270   16.5040   -9.9060 C.3       4 GLP5        0.0000 
     74 CA         65.1155   13.7445   -8.9147 C.3       2 GLC5        0.0000 
     75 CA         65.2583   14.4445   -4.6875 C.3       2 GLC5        0.0000 
     76 CA         62.6285   11.4078   -6.8355 C.3       2 GLC5        0.0000 
     77 CA         64.0273   13.3840   -8.9037 C.3       2 GLC5        0.0000 
     78 CA         62.6110   13.4170   -7.2770 C.3       6 GLL5        0.0000 
     79 CA         61.0990   12.5515   -8.6980 C.3       2 GLC5        0.0000 
     80 CA         60.9393   12.4080   -4.8250 C.3       2 GLC5        0.0000 
     81 CA         59.2440   15.4713   -6.7982 C.3       2 GLC5        0.0000 
     82 CA         62.3125   19.1852   -7.1378 C.3       2 GLC5        0.0000 
     83 CA         59.9263   15.9113   -1.7623 C.3       2 GLC5        0.0000 
     84 CA         60.3380   14.8840   -0.2800 C.3       4 GLP5        0.0000 
     85 CA         58.2302   17.9862   -2.1833 C.3       2 GLC5        0.0000 
     86 CA         56.9460   19.0340   -1.1220 C.3       4 GLP5        0.0000 
     87 CA         58.7617   19.1210   -1.9972 C.3       2 GLC5        0.0000 
     88 CA         60.8040   18.4430   -3.0540 C.3       6 GLL5        0.0000 
     89 CA         58.6433   20.9620   -2.6982 C.3       2 GLC5        0.0000 
     90 CA         60.1260   20.0250   -1.1900 C.3       6 GLL5        0.0000 
     91 CA         58.4240   19.8612   -0.9963 C.3       2 GLC5        0.0000 
@<TRIPOS>BOND
@<TRIPOS>SUBSTRUCTURE
     1 SEC2       68 GROUP        1 X    SEC  0     ROOT SEC X 2
     2 GLC5        1 GROUP        1 X    GLC  0     **** GLC X 6
     3 SEP2       70 GROUP        1 Y    SEP  0     ROOT SEP Y 9
     4 GLP5        3 GROUP        1 Y    GLP  0     **** GLP Y 13
     5 SEL2       69 GROUP        1 Z    SEL  0     ROOT SEL Z 16
     6 GLL5        2 GROUP        1 Z    GLL  0     **** GLL Z 20
@<TRIPOS>SET

