#    Name: 3w5r_LOA_1_ligand
#    Modification time : Tue Mar 25 02:19:57 2014

@<TRIPOS>MOLECULE
3w5r_LOA_1_ligand
   71    74     1     0     0
SMALL
NO_CHARGES


@<TRIPOS>ATOM
      1 C1         64.4790   15.1970   -8.0590 C.3       1 LOA500      0.0000 
      2 C2         65.4330   14.6850   -6.8880 C.3       1 LOA500      0.0000 
      3 C3         65.1100   13.1430   -6.4900 C.3       1 LOA500      0.0000 
      4 O3         65.9380   12.7440   -5.4450 O.3       1 LOA500      0.0000 
      5 C4         63.5870   12.9540   -6.0530 C.3       1 LOA500      0.0000 
      6 C5         62.6110   13.4170   -7.2770 C.3       1 LOA500      0.0000 
      7 C6         61.0410   13.2530   -6.8550 C.3       1 LOA500      0.0000 
      8 C7         60.7580   14.1130   -5.5310 C.3       1 LOA500      0.0000 
      9 C8         61.0360   15.6780   -5.7760 C.3       1 LOA500      0.0000 
     10 C9         62.5980   15.9010   -6.2140 C.3       1 LOA500      0.0000 
     11 C10        62.9480   15.0230   -7.6260 C.3       1 LOA500      0.0000 
     12 C11        62.8570   17.4210   -6.4490 C.3       1 LOA500      0.0000 
     13 C12        62.5590   18.3240   -5.2060 C.3       1 LOA500      0.0000 
     14 C13        61.0930   18.0990   -4.5880 C.3       1 LOA500      0.0000 
     15 C14        60.8200   16.5230   -4.4570 C.3       1 LOA500      0.0000 
     16 C15        59.3600   16.4950   -3.8290 C.3       1 LOA500      0.0000 
     17 C16        59.6690   17.3820   -2.6600 C.3       1 LOA500      0.0000 
     18 C17        60.8040   18.4430   -3.0540 C.3       1 LOA500      0.0000 
     19 C18        60.0390   18.8240   -5.6570 C.3       1 LOA500      0.0000 
     20 C19        62.1590   15.5620   -8.8390 C.3       1 LOA500      0.0000 
     21 C20        60.3510   19.9730   -2.6910 C.3       1 LOA500      0.0000 
     22 C21        61.5160   21.0220   -3.1050 C.3       1 LOA500      0.0000 
     23 C22        60.1260   20.0250   -1.1900 C.3       1 LOA500      0.0000 
     24 C23        59.6780   21.3520   -0.5510 C.3       1 LOA500      0.0000 
     25 C24        59.4440   21.2760    0.9140 C.2       1 LOA500      0.0000 
     26 C25        67.9990   11.5690   -4.4190 C.3       1 LOA500      0.0000 
     27 C26        67.0270   12.0510   -5.5470 C.2       1 LOA500      0.0000 
     28 OT1        58.4510   21.8710    1.3430 O.co2     1 LOA500      0.0000 
     29 OT2        60.2190   20.6190    1.6520 O.co2     1 LOA500      0.0000 
     30 O25        67.6070   11.5820   -6.5120 O.2       1 LOA500      0.0000 
     31 H          64.6565   14.6072   -8.9329 H         1 LOA500      0.0000 
     32 H          64.6697   16.2347   -8.2321 H         1 LOA500      0.0000 
     33 H          65.2768   15.2916   -6.0159 H         1 LOA500      0.0000 
     34 H          66.4535   14.7348   -7.2180 H         1 LOA500      0.0000 
     35 H          65.2553   12.5624   -7.3871 H         1 LOA500      0.0000 
     36 H          63.3798   13.5767   -5.2155 H         1 LOA500      0.0000 
     37 H          63.4007   11.9250   -5.8570 H         1 LOA500      0.0000 
     38 H          62.8183   12.8538   -8.1213 H         1 LOA500      0.0000 
     39 H          60.8611   12.2264   -6.6504 H         1 LOA500      0.0000 
     40 H          60.4458   13.6291   -7.6503 H         1 LOA500      0.0000 
     41 H          61.4119   13.7687   -4.7510 H         1 LOA500      0.0000 
     42 H          59.7272   13.9892   -5.2543 H         1 LOA500      0.0000 
     43 H          60.4325   16.0414   -6.5417 H         1 LOA500      0.0000 
     44 H          63.2176   15.5243   -5.4558 H         1 LOA500      0.0000 
     45 H          62.2323   17.7599   -7.2837 H         1 LOA500      0.0000 
     46 H          63.9058   17.5593   -6.7368 H         1 LOA500      0.0000 
     47 H          62.6409   19.3704   -5.4921 H         1 LOA500      0.0000 
     48 H          63.2845   18.1119   -4.4236 H         1 LOA500      0.0000 
     49 H          61.4919   16.1777   -3.6705 H         1 LOA500      0.0000 
     50 H          59.1601   15.5294   -3.5320 H         1 LOA500      0.0000 
     51 H          58.7191   16.9508   -4.4939 H         1 LOA500      0.0000 
     52 H          60.0467   16.8091   -1.8235 H         1 LOA500      0.0000 
     53 H          58.7976   17.9472   -2.3569 H         1 LOA500      0.0000 
     54 H          61.6715   18.1793   -2.4844 H         1 LOA500      0.0000 
     55 H          59.4823   20.1904   -3.2210 H         1 LOA500      0.0000 
     56 H          61.0687   19.6946   -0.6734 H         1 LOA500      0.0000 
     57 H          59.3735   19.2370   -0.9116 H         1 LOA500      0.0000 
     58 H          58.7557   21.6839   -1.0660 H         1 LOA500      0.0000 
     59 H          60.4494   22.1147   -0.7731 H         1 LOA500      0.0000 
     60 H          60.2280   19.8005   -5.7603 H         1 LOA500      0.0000 
     61 H          60.0957   18.4165   -6.5684 H         1 LOA500      0.0000 
     62 H          59.0889   18.7395   -5.3567 H         1 LOA500      0.0000 
     63 H          62.2800   16.5482   -8.9523 H         1 LOA500      0.0000 
     64 H          62.4505   15.1309   -9.6929 H         1 LOA500      0.0000 
     65 H          61.1772   15.3959   -8.7470 H         1 LOA500      0.0000 
     66 H          62.3723   20.8351   -2.6235 H         1 LOA500      0.0000 
     67 H          61.7166   20.9869   -4.0840 H         1 LOA500      0.0000 
     68 H          61.2597   21.9648   -2.8919 H         1 LOA500      0.0000 
     69 H          68.7667   11.0456   -4.7888 H         1 LOA500      0.0000 
     70 H          68.3865   12.3372   -3.9093 H         1 LOA500      0.0000 
     71 H          67.5358   10.9811   -3.7558 H         1 LOA500      0.0000 
@<TRIPOS>BOND
     1    2    1 1    
     2   11    1 1    
     3   31    1 1    
     4   32    1 1    
     5    3    2 1    
     6   33    2 1    
     7   34    2 1    
     8    4    3 1    
     9    5    3 1    
    10   35    3 1    
    11   27    4 1    
    12    6    5 1    
    13   36    5 1    
    14   37    5 1    
    15    7    6 1    
    16   11    6 1    
    17   38    6 1    
    18    8    7 1    
    19   39    7 1    
    20   40    7 1    
    21    9    8 1    
    22   41    8 1    
    23   42    8 1    
    24   10    9 1    
    25   15    9 1    
    26   43    9 1    
    27   11   10 1    
    28   12   10 1    
    29   44   10 1    
    30   20   11 1    
    31   13   12 1    
    32   45   12 1    
    33   46   12 1    
    34   14   13 1    
    35   47   13 1    
    36   48   13 1    
    37   15   14 1    
    38   18   14 1    
    39   19   14 1    
    40   16   15 1    
    41   49   15 1    
    42   17   16 1    
    43   50   16 1    
    44   51   16 1    
    45   18   17 1    
    46   52   17 1    
    47   53   17 1    
    48   21   18 1    
    49   54   18 1    
    50   60   19 1    
    51   61   19 1    
    52   62   19 1    
    53   63   20 1    
    54   64   20 1    
    55   65   20 1    
    56   22   21 1    
    57   23   21 1    
    58   55   21 1    
    59   66   22 1    
    60   67   22 1    
    61   68   22 1    
    62   24   23 1    
    63   56   23 1    
    64   57   23 1    
    65   25   24 1    
    66   58   24 1    
    67   59   24 1    
    68   28   25 ar   
    69   29   25 ar   
    70   27   26 1    
    71   69   26 1    
    72   70   26 1    
    73   71   26 1    
    74   30   27 2    
@<TRIPOS>SUBSTRUCTURE
     1 LOA500      1 GROUP   
@<TRIPOS>SET

