#    Name: 4bzo_676_1_INTS_M
#    Modification time : Tue Mar 25 08:35:39 2014

@<TRIPOS>MOLECULE
4bzo_676_1_INTS_M
   81     0    12     0     0
SMALL
NO_CHARGES


@<TRIPOS>ATOM
      1 O          24.1405  -33.6980    5.6730 O.2       1 ALC1        0.0000 
      2 O          22.9420  -34.4680    5.5750 O.2       9 ALL1        0.0000 
      3 O          25.3390  -32.9280    5.7710 O.2       5 ALP1        0.0000 
      4 CA         22.2515  -39.6375    3.5765 C.3       4 GLC5        0.0000 
      5 CA         24.1340  -39.4110    4.6350 C.3      12 GLL5        0.0000 
      6 CA         20.3690  -39.8640    2.5180 C.3       8 GLP5        0.0000 
      7 CA         21.5745  -40.2480    5.1985 C.3       4 GLC5        0.0000 
      8 CA         23.2810  -39.4200    5.7470 C.3      12 GLL5        0.0000 
      9 CA         19.8680  -41.0760    4.6500 C.3       8 GLP5        0.0000 
     10 OD1        24.8215  -34.1880    8.1210 O.co2     3 ASC3        0.0000 
     11 OD1        22.9000  -34.4860    8.4980 O.co2    11 ASL3        0.0000 
     12 OD1        26.7430  -33.8900    7.7440 O.co2     7 ASP3        0.0000 
     13 CA         20.7635  -31.6530    4.5850 C.3       4 GLC5        0.0000 
     14 CA         22.3760  -32.5930    4.0990 C.3      12 GLL5        0.0000 
     15 CA         19.1510  -30.7130    5.0710 C.3       8 GLP5        0.0000 
     16 CA         20.0560  -31.6370    3.3155 C.3       4 GLC5        0.0000 
     17 CA         21.6140  -32.3540    2.7750 C.3      12 GLL5        0.0000 
     18 CA         18.4980  -30.9200    3.8560 C.3       8 GLP5        0.0000 
     19 CA         19.9550  -32.9935    1.8455 C.3       4 GLC5        0.0000 
     20 CA         18.2960  -33.6330    0.9160 C.3       8 GLP5        0.0000 
     21 CA         20.1680  -30.3920    2.6890 C.3       4 GLC5        0.0000 
     22 CA         21.8490  -30.8650    2.4880 C.3      12 GLL5        0.0000 
     23 CA         18.4870  -29.9190    2.8900 C.3       8 GLP5        0.0000 
     24 CA         22.8450  -29.6885    0.9425 C.3       4 GLC5        0.0000 
     25 CA         23.8410  -28.5120   -0.6030 C.3       8 GLP5        0.0000 
     26 O          21.7690  -29.1180    0.9555 O.2       1 ALC1        0.0000 
     27 O          21.4830  -30.5400    1.1140 O.2       9 ALL1        0.0000 
     28 O          22.0550  -27.6960    0.7970 O.2       5 ALP1        0.0000 
     29 N          20.6245  -29.9470   -1.5785 N.am      2 SEC2        0.0000 
     30 N          21.4880  -30.9230   -1.1130 N.am     10 SEL2        0.0000 
     31 N          19.7610  -28.9710   -2.0440 N.am      6 SEP2        0.0000 
     32 CA         21.7720  -34.1155   -2.3055 C.3       4 GLC5        0.0000 
     33 CA         22.3010  -33.8340   -0.5010 C.3      12 GLL5        0.0000 
     34 CA         21.2430  -34.3970   -4.1100 C.3       8 GLP5        0.0000 
     35 CA         25.1570  -40.6660    1.9200 C.3       4 GLC5        0.0000 
     36 CA         23.6430  -39.6580    1.0360 C.3      12 GLL5        0.0000 
     37 CA         26.6710  -41.6740    2.8040 C.3       8 GLP5        0.0000 
     38 CA         22.8675  -37.0240   -3.7095 C.3       4 GLC5        0.0000 
     39 CA         23.9590  -37.6370   -1.8940 C.3      12 GLL5        0.0000 
     40 CA         21.7760  -36.4110   -5.5250 C.3       8 GLP5        0.0000 
     41 CA         24.2540  -39.5615   -2.6085 C.3       4 GLC5        0.0000 
     42 CA         24.5490  -41.4860   -3.3230 C.3       8 GLP5        0.0000 
     43 CA         25.5850  -39.1165   -2.0665 C.3       4 GLC5        0.0000 
     44 CA         27.2110  -40.5960   -2.2390 C.3       8 GLP5        0.0000 
     45 CA         22.3610  -35.4065   -2.7680 C.3       4 GLC5        0.0000 
     46 CA         23.4790  -36.4160   -1.4260 C.3      12 GLL5        0.0000 
     47 CA         25.1020  -35.0525   -1.4930 C.3       4 GLC5        0.0000 
     48 CA         26.7250  -33.6890   -1.5600 C.3       8 GLP5        0.0000 
     49 CA         21.2415  -38.0888    5.2425 C.3       4 GLC5        0.0000 
     50 CA         23.2280  -36.9710    5.7190 C.3      12 GLL5        0.0000 
     51 CA         19.4520  -38.5910    4.4840 C.3       8 GLP5        0.0000 
     52 CA         25.9183  -36.8393    3.4958 C.3       4 GLC5        0.0000 
     53 CA         24.0800  -36.9720    4.6140 C.3      12 GLL5        0.0000 
     54 CA         27.5350  -36.1030    2.6490 C.3       8 GLP5        0.0000 
     55 CA         25.4997  -40.2345    3.5785 C.3       4 GLC5        0.0000 
     56 CA         24.5230  -38.1790    4.0710 C.3      12 GLL5        0.0000 
     57 CA         20.7107  -35.3867    0.9370 C.3       4 GLC5        0.0000 
     58 CA         22.5140  -34.5090    1.6910 C.3      12 GLL5        0.0000 
     59 CA         18.8660  -36.0650    0.8540 C.3       8 GLP5        0.0000 
     60 CA         23.7825  -32.1921    2.0987 C.3       4 GLC5        0.0000 
     61 CA         25.6430  -32.7150    1.2350 C.3       8 GLP5        0.0000 
     62 CA         20.2237  -33.4603    0.4037 C.3       4 GLC5        0.0000 
     63 CA         22.0020  -32.7410    0.2840 C.3      12 GLL5        0.0000 
     64 CA         20.9655  -36.4397    0.5847 C.3       4 GLC5        0.0000 
     65 CA         23.0220  -36.2680   -0.1150 C.3      12 GLL5        0.0000 
     66 CA         25.0285  -36.8772    0.2983 C.3       4 GLC5        0.0000 
     67 CA         26.9920  -36.9400    0.2810 C.3       8 GLP5        0.0000 
     68 CA         21.8710  -38.1179   -0.8561 C.3       4 GLC5        0.0000 
     69 CA         23.5850  -38.5770    0.2380 C.3      12 GLL5        0.0000 
     70 CA         20.4170  -38.5400   -1.9890 C.3       8 GLP5        0.0000 
     71 CA         23.5605  -40.7652   -0.2540 C.3       4 GLC5        0.0000 
     72 CA         23.5070  -42.4130   -1.1450 C.3       8 GLP5        0.0000 
     73 CA         25.3030  -38.0288    0.4590 C.3       4 GLC5        0.0000 
     74 CA         21.9319  -39.3387    1.6410 C.3       4 GLC5        0.0000 
     75 CA         23.1080  -37.3610    0.7460 C.3      12 GLL5        0.0000 
     76 CA         22.0680  -37.7832   -1.8245 C.3       4 GLC5        0.0000 
     77 CA         25.2835  -36.8287   -2.8030 C.3       4 GLC5        0.0000 
     78 CA         26.8480  -36.6310   -3.9460 C.3       8 GLP5        0.0000 
     79 CA         25.3555  -36.9832   -0.6895 C.3       4 GLC5        0.0000 
     80 CA         23.9982  -33.3565    0.8454 C.3       4 GLC5        0.0000 
     81 CA         22.5970  -34.9080    0.3490 C.3      12 GLL5        0.0000 
@<TRIPOS>BOND
@<TRIPOS>SUBSTRUCTURE
     1 ALC1        1 GROUP        1 X    ALC  0     ROOT ALC X 1
     2 SEC2       29 GROUP        1 X    SEC  0     **** SEC X 2
     3 ASC3       10 GROUP        1 X    ASC  0     **** ASC X 3
     4 GLC5        4 GROUP        1 X    GLC  0     **** GLC X 6
     5 ALP1        3 GROUP        1 Y    ALP  0     ROOT ALP Y 8
     6 SEP2       31 GROUP        1 Y    SEP  0     **** SEP Y 9
     7 ASP3       12 GROUP        1 Y    ASP  0     **** ASP Y 10
     8 GLP5        6 GROUP        1 Y    GLP  0     **** GLP Y 13
     9 ALL1        2 GROUP        1 Z    ALL  0     ROOT ALL Z 15
    10 SEL2       30 GROUP        1 Z    SEL  0     **** SEL Z 16
    11 ASL3       11 GROUP        1 Z    ASL  0     **** ASL Z 17
    12 GLL5        5 GROUP        1 Z    GLL  0     **** GLL Z 20
@<TRIPOS>SET

