#    Name: 4bzo_676_1_ligand
#    Modification time : Tue Mar 25 08:35:39 2014

@<TRIPOS>MOLECULE
4bzo_676_1_ligand
   53    56     1     0     0
SMALL
NO_CHARGES


@<TRIPOS>ATOM
      1 O21        20.8970  -34.3990    4.6090 O.2       1 6761306     0.0000 
      2 C19        22.0050  -33.8930    4.7990 C.2       1 6761306     0.0000 
      3 N20        22.9420  -34.4680    5.5750 N.am      1 6761306     0.0000 
      4 C22        22.7330  -35.7070    6.3460 C.3       1 6761306     0.0000 
      5 C24        23.2280  -36.9710    5.7190 C.ar      1 6761306     0.0000 
      6 C29        24.0800  -36.9720    4.6140 C.ar      1 6761306     0.0000 
      7 C28        24.5230  -38.1790    4.0710 C.ar      1 6761306     0.0000 
      8 C27        24.1340  -39.4110    4.6350 C.ar      1 6761306     0.0000 
      9 C26        23.2810  -39.4200    5.7470 C.ar      1 6761306     0.0000 
     10 C25        22.8340  -38.2020    6.2830 C.ar      1 6761306     0.0000 
     11 C23        23.5180  -35.5150    7.6650 C.3       1 6761306     0.0000 
     12 N30        22.9000  -34.4860    8.4980 N.4       1 6761306     0.0000 
     13 C11        22.3760  -32.5930    4.0990 C.3       1 6761306     0.0000 
     14 C6         21.6140  -32.3540    2.7750 C.3       1 6761306     0.0000 
     15 N5         22.2320  -33.1060    1.6580 N.pl3     1 6761306     0.0000 
     16 C1         22.5140  -34.5090    1.6910 C.2       1 6761306     0.0000 
     17 C7         21.8490  -30.8650    2.4880 C.3       1 6761306     0.0000 
     18 N8         21.4830  -30.5400    1.1140 N.am      1 6761306     0.0000 
     19 C9         21.6390  -31.3240    0.0380 C.2       1 6761306     0.0000 
     20 O10        21.4880  -30.9230   -1.1130 O.2       1 6761306     0.0000 
     21 C4         22.0020  -32.7410    0.2840 C.2       1 6761306     0.0000 
     22 C2         22.3010  -33.8340   -0.5010 C.2       1 6761306     0.0000 
     23 C3         22.5970  -34.9080    0.3490 C.2       1 6761306     0.0000 
     24 C12        23.0220  -36.2680   -0.1150 C.ar      1 6761306     0.0000 
     25 C14        23.1080  -37.3610    0.7460 C.ar      1 6761306     0.0000 
     26 C16        23.5850  -38.5770    0.2380 C.ar      1 6761306     0.0000 
     27 F18        23.6430  -39.6580    1.0360 F         1 6761306     0.0000 
     28 N17        24.0040  -38.6960   -1.0570 N.ar      1 6761306     0.0000 
     29 C15        23.9590  -37.6370   -1.8940 C.ar      1 6761306     0.0000 
     30 C13        23.4790  -36.4160   -1.4260 C.ar      1 6761306     0.0000 
     31 H          23.9022  -34.0458    5.6718 H         1 6761306     0.0000 
     32 H          21.6982  -35.8085    6.6292 H         1 6761306     0.0000 
     33 H          24.3822  -36.0817    4.1987 H         1 6761306     0.0000 
     34 H          25.1422  -38.1761    3.2477 H         1 6761306     0.0000 
     35 H          24.4720  -40.2852    4.2350 H         1 6761306     0.0000 
     36 H          22.9869  -40.3034    6.1640 H         1 6761306     0.0000 
     37 H          22.2081  -38.2045    7.1013 H         1 6761306     0.0000 
     38 H          24.5475  -35.2464    7.4040 H         1 6761306     0.0000 
     39 H          23.5417  -36.4804    8.1822 H         1 6761306     0.0000 
     40 H          23.4557  -32.5897    3.8841 H         1 6761306     0.0000 
     41 H          22.1759  -31.7459    4.7730 H         1 6761306     0.0000 
     42 H          20.6103  -32.5320    2.8956 H         1 6761306     0.0000 
     43 H          22.6164  -35.0263    2.4456 H         1 6761306     0.0000 
     44 H          22.9063  -30.6469    2.6755 H         1 6761306     0.0000 
     45 H          21.2534  -30.2846    3.2015 H         1 6761306     0.0000 
     46 H          21.0483  -29.5646    0.9994 H         1 6761306     0.0000 
     47 H          22.3087  -33.8668   -1.4473 H         1 6761306     0.0000 
     48 H          22.8321  -37.2814    1.7200 H         1 6761306     0.0000 
     49 H          24.2723  -37.7118   -2.8728 H         1 6761306     0.0000 
     50 H          23.4601  -35.5987   -2.0638 H         1 6761306     0.0000 
     51 H          23.5739  -34.0144    9.0668 H         1 6761306     0.0000 
     52 H          22.4415  -33.7884    7.9475 H         1 6761306     0.0000 
     53 H          22.2133  -34.8705    9.1150 H         1 6761306     0.0000 
@<TRIPOS>BOND
     1    2    1 2    
     2    3    2 am   
     3   13    2 1    
     4    4    3 1    
     5   31    3 1    
     6    5    4 1    
     7   11    4 1    
     8   32    4 1    
     9    6    5 ar   
    10   10    5 ar   
    11    7    6 ar   
    12   33    6 1    
    13    8    7 ar   
    14   34    7 1    
    15    9    8 ar   
    16   35    8 1    
    17   10    9 ar   
    18   36    9 1    
    19   37   10 1    
    20   12   11 1    
    21   38   11 1    
    22   39   11 1    
    23   51   12 1    
    24   52   12 1    
    25   53   12 1    
    26   14   13 1    
    27   40   13 1    
    28   41   13 1    
    29   15   14 1    
    30   17   14 1    
    31   42   14 1    
    32   16   15 1    
    33   21   15 1    
    34   23   16 2    
    35   43   16 1    
    36   18   17 1    
    37   44   17 1    
    38   45   17 1    
    39   19   18 am   
    40   46   18 1    
    41   20   19 2    
    42   21   19 1    
    43   22   21 2    
    44   23   22 1    
    45   47   22 1    
    46   24   23 1    
    47   25   24 ar   
    48   30   24 ar   
    49   26   25 ar   
    50   48   25 1    
    51   27   26 1    
    52   28   26 ar   
    53   29   28 ar   
    54   30   29 ar   
    55   49   29 1    
    56   50   30 1    
@<TRIPOS>SUBSTRUCTURE
     1 6761306     1 GROUP   
@<TRIPOS>SET

