#    Name: 1kgi_T4A_2_INTS_M
#    Modification time : Tue Mar 25 09:59:19 2014

@<TRIPOS>MOLECULE
1kgi_T4A_2_INTS_M
   53     0     3     0     0
SMALL
NO_CHARGES


@<TRIPOS>ATOM
      1 CA         45.7905   92.4420   42.9175 C.3       1 GLC5        0.0000 
      2 CA         44.5440   92.9650   41.3540 C.3       3 GLL5        0.0000 
      3 CA         47.0370   91.9190   44.4810 C.3       2 GLP5        0.0000 
      4 CA         43.6205   95.8915   39.3350 C.3       1 GLC5        0.0000 
      5 CA         44.6800   96.7100   40.5640 C.3       3 GLL5        0.0000 
      6 CA         42.5610   95.0730   38.1060 C.3       2 GLP5        0.0000 
      7 CA         43.3160   97.9585   39.3010 C.3       1 GLC5        0.0000 
      8 CA         41.9520   99.2070   38.0380 C.3       2 GLP5        0.0000 
      9 CA         43.6135   93.6190   45.2700 C.3       1 GLC5        0.0000 
     10 CA         41.8850   94.1700   44.5940 C.3       3 GLL5        0.0000 
     11 CA         45.3420   93.0680   45.9460 C.3       2 GLP5        0.0000 
     12 CA         41.4585   92.5585   45.3955 C.3       1 GLC5        0.0000 
     13 CA         41.0320   90.9470   46.1970 C.3       2 GLP5        0.0000 
     14 CA         40.2955   95.6670   44.5695 C.3       1 GLC5        0.0000 
     15 CA         38.7060   97.1640   44.5450 C.3       2 GLP5        0.0000 
     16 CA         40.5535   94.0120   46.1900 C.3       1 GLC5        0.0000 
     17 CA         39.2220   93.8540   47.7860 C.3       2 GLP5        0.0000 
     18 CA         46.4935   90.9125   42.2520 C.3       1 GLC5        0.0000 
     19 CA         45.3970   91.2410   40.5280 C.3       3 GLL5        0.0000 
     20 CA         47.5900   90.5840   43.9760 C.3       2 GLP5        0.0000 
     21 CA         47.1555   90.8075   39.9580 C.3       1 GLC5        0.0000 
     22 CA         48.9140   90.3740   39.3880 C.3       2 GLP5        0.0000 
     23 CA         45.3205   89.5240   40.9245 C.3       1 GLC5        0.0000 
     24 CA         45.2440   87.8070   41.3210 C.3       2 GLP5        0.0000 
     25 CA         43.8125   90.5985   39.1185 C.3       1 GLC5        0.0000 
     26 CA         42.2280   89.9560   37.7090 C.3       2 GLP5        0.0000 
     27 CA         39.8185   93.1840   39.6740 C.3       1 GLC5        0.0000 
     28 CA         39.1300   91.0820   39.8330 C.3       3 GLL5        0.0000 
     29 CA         40.5070   95.2860   39.5150 C.3       2 GLP5        0.0000 
     30 CA         40.2860   91.0175   38.3595 C.3       1 GLC5        0.0000 
     31 CA         41.4420   90.9530   36.8860 C.3       2 GLP5        0.0000 
     32 CA         38.4045   91.8905   41.2975 C.3       1 GLC5        0.0000 
     33 CA         37.6790   92.6990   42.7620 C.3       2 GLP5        0.0000 
     34 CA         37.1180   91.0740   39.6005 C.3       1 GLC5        0.0000 
     35 CA         35.1060   91.0660   39.3680 C.3       2 GLP5        0.0000 
     36 CA         43.5695   87.0820   41.8620 C.3       1 GLC5        0.0000 
     37 CA         41.8950   86.3570   42.4030 C.3       3 GLL5        0.0000 
     38 CA         43.2575   85.5590   43.5385 C.3       1 GLC5        0.0000 
     39 CA         44.6200   84.7610   44.6740 C.3       2 GLP5        0.0000 
     40 CA         40.9360   85.7865   44.0395 C.3       1 GLC5        0.0000 
     41 CA         39.9770   85.2160   45.6760 C.3       2 GLP5        0.0000 
     42 CA         41.9190   95.0083   41.0738 C.3       1 GLC5        0.0000 
     43 CA         43.4880   95.3560   42.3250 C.3       3 GLL5        0.0000 
     44 CA         44.3895   93.2865   44.3233 C.3       1 GLC5        0.0000 
     45 CA         43.1740   94.1050   42.9400 C.3       3 GLL5        0.0000 
     46 CA         43.5669   94.4762   39.6363 C.3       1 GLC5        0.0000 
     47 CA         41.8075   90.4982   44.4015 C.3       1 GLC5        0.0000 
     48 CA         42.5100   90.7520   42.4860 C.3       3 GLL5        0.0000 
     49 CA         41.6410   90.3597   39.5325 C.3       1 GLC5        0.0000 
     50 CA         41.4930   91.2320   41.6540 C.3       3 GLL5        0.0000 
     51 CA         39.3665   91.7312   42.0590 C.3       1 GLC5        0.0000 
     52 CA         40.6150   90.2950   41.0580 C.3       3 GLL5        0.0000 
     53 CA         43.6980   88.5279   41.8327 C.3       1 GLC5        0.0000 
@<TRIPOS>BOND
@<TRIPOS>SUBSTRUCTURE
     1 GLC5        1 GROUP        1 X    GLC  0     ROOT GLC X 6
     2 GLP5        3 GROUP        1 Y    GLP  0     ROOT GLP Y 13
     3 GLL5        2 GROUP        1 Z    GLL  0     ROOT GLL Z 20
@<TRIPOS>SET

