#    Name: 1kgi_T4A_2_ligand
#    Modification time : Tue Mar 25 09:59:19 2014

@<TRIPOS>MOLECULE
1kgi_T4A_2_ligand
   28    29     1     0     0
SMALL
NO_CHARGES


@<TRIPOS>ATOM
      1 C1         44.3330   95.3800   41.2300 C.ar      1 T4A328      0.0000 
      2 C2         43.4880   95.3560   42.3250 C.ar      1 T4A328      0.0000 
      3 C3         43.1740   94.1050   42.9400 C.ar      1 T4A328      0.0000 
      4 C4         43.7000   92.9050   42.4610 C.ar      1 T4A328      0.0000 
      5 C5         44.5440   92.9650   41.3540 C.ar      1 T4A328      0.0000 
      6 C6         44.8700   94.2080   40.7280 C.ar      1 T4A328      0.0000 
      7 C7         44.6800   96.7100   40.5640 C.3       1 T4A328      0.0000 
      8 C8         45.0010   97.8770   41.4870 C.2       1 T4A328      0.0000 
      9 C1'        42.5100   90.7520   42.4860 C.ar      1 T4A328      0.0000 
     10 C6'        41.4930   91.2320   41.6540 C.ar      1 T4A328      0.0000 
     11 C5'        40.6150   90.2950   41.0580 C.ar      1 T4A328      0.0000 
     12 C4'        40.7070   88.9170   41.2530 C.ar      1 T4A328      0.0000 
     13 C3'        41.7210   88.4480   42.0830 C.ar      1 T4A328      0.0000 
     14 C2'        42.6560   89.3470   42.7260 C.ar      1 T4A328      0.0000 
     15 I3         41.8850   94.1700   44.5940 I         1 T4A328      0.0000 
     16 I5         45.3970   91.2410   40.5280 I         1 T4A328      0.0000 
     17 I5'        39.1300   91.0820   39.8330 I         1 T4A328      0.0000 
     18 I3'        41.8950   86.3570   42.4030 I         1 T4A328      0.0000 
     19 O8         46.1870   98.3050   41.5540 O.co2     1 T4A328      0.0000 
     20 O9         44.0750   98.4020   42.1670 O.co2     1 T4A328      0.0000 
     21 O4         43.3870   91.6690   43.0820 O.3       1 T4A328      0.0000 
     22 O4'        39.8290   88.0550   40.6510 O.co2     1 T4A328      0.0000 
     23 H          43.0831   96.2102   42.7046 H         1 T4A328      0.0000 
     24 H          45.4927   94.2089   39.9224 H         1 T4A328      0.0000 
     25 H          43.8339   97.0033   39.8982 H         1 T4A328      0.0000 
     26 H          45.5461   96.5472   39.8794 H         1 T4A328      0.0000 
     27 H          41.3814   92.2211   41.4780 H         1 T4A328      0.0000 
     28 H          43.3769   88.9926   43.3164 H         1 T4A328      0.0000 
@<TRIPOS>BOND
     1    2    1 ar   
     2    6    1 ar   
     3    7    1 1    
     4    3    2 ar   
     5   23    2 1    
     6    4    3 ar   
     7   15    3 1    
     8    5    4 ar   
     9   21    4 1    
    10    6    5 ar   
    11   16    5 1    
    12   24    6 1    
    13    8    7 1    
    14   25    7 1    
    15   26    7 1    
    16   19    8 ar   
    17   20    8 ar   
    18   10    9 ar   
    19   14    9 ar   
    20   21    9 1    
    21   11   10 ar   
    22   27   10 1    
    23   12   11 ar   
    24   17   11 1    
    25   13   12 ar   
    26   22   12 ar   
    27   14   13 ar   
    28   18   13 1    
    29   28   14 1    
@<TRIPOS>SUBSTRUCTURE
     1 T4A328      1 GROUP   
@<TRIPOS>SET

