#    Name: 2hdj_NDP_1_INTS_M
#    Modification time : Tue Mar 25 15:55:01 2014

@<TRIPOS>MOLECULE
2hdj_NDP_1_INTS_M
  114     0    12     0     0
SMALL
NO_CHARGES


@<TRIPOS>ATOM
      1 N         103.5885   16.0405  177.7085 N.am      2 SEC2        0.0000 
      2 N         104.4200   16.5380  176.3320 N.am     10 SEL2        0.0000 
      3 N         102.7570   15.5430  179.0850 N.am      6 SEP2        0.0000 
      4 N         104.3230   15.1960  175.7745 N.am      2 SEC2        0.0000 
      5 N         104.2260   13.8540  175.2170 N.am      6 SEP2        0.0000 
      6 N         104.2550   20.4925  177.0885 N.am      2 SEC2        0.0000 
      7 N         104.3110   18.9530  177.2140 N.am     10 SEL2        0.0000 
      8 N         104.1990   22.0320  176.9630 N.am      6 SEP2        0.0000 
      9 CA        101.7905   17.0355  175.9965 C.3       4 GLC5        0.0000 
     10 CA        102.6060   17.3550  174.1170 C.3      12 GLL5        0.0000 
     11 CA        100.9750   16.7160  177.8760 C.3       8 GLP5        0.0000 
     12 CA        103.9175   15.8045  174.1685 C.3       4 GLC5        0.0000 
     13 CA        105.2290   14.2540  174.2200 C.3       8 GLP5        0.0000 
     14 CA        101.0740   22.2195  173.1520 C.3       4 GLC5        0.0000 
     15 CA        100.4800   20.1480  172.7210 C.3      12 GLL5        0.0000 
     16 CA        101.6680   24.2910  173.5830 C.3       8 GLP5        0.0000 
     17 N          98.8985   22.8295  177.3180 N.am      2 SEC2        0.0000 
     18 N          98.4500   21.5970  176.3000 N.am     10 SEL2        0.0000 
     19 N          99.3470   24.0620  178.3360 N.am      6 SEP2        0.0000 
     20 O          94.5870   21.7835  178.4035 O.2       1 ALC1        0.0000 
     21 O          95.7340   21.6670  177.7140 O.2       9 ALL1        0.0000 
     22 O          93.4400   21.9000  179.0930 O.2       5 ALP1        0.0000 
     23 O          96.8835   22.1985  178.6430 O.2       1 ALC1        0.0000 
     24 O          98.0330   22.7300  179.5720 O.2       5 ALP1        0.0000 
     25 CA         96.2015   17.3900  175.8210 C.3       4 GLC5        0.0000 
     26 CA         95.4530   18.9640  175.2960 C.3      12 GLL5        0.0000 
     27 CA         96.9500   15.8160  176.3460 C.3       8 GLP5        0.0000 
     28 CA         95.8865   18.7545  177.3105 C.3       4 GLC5        0.0000 
     29 CA         96.3200   18.5450  179.3250 C.3       8 GLP5        0.0000 
     30 CA         95.4375   20.5725  174.3685 C.3       4 GLC5        0.0000 
     31 CA         95.4220   22.1810  173.4410 C.3       8 GLP5        0.0000 
     32 CA         97.2585   17.8385  175.7210 C.3       4 GLC5        0.0000 
     33 CA         97.5670   19.8610  175.0960 C.3      12 GLL5        0.0000 
     34 N         107.8630   15.4425  175.4835 N.am      2 SEC2        0.0000 
     35 N         107.4220   16.5540  174.8510 N.am     10 SEL2        0.0000 
     36 N         108.3040   14.3310  176.1160 N.am      6 SEP2        0.0000 
     37 N         107.6070   17.1875  177.1455 N.am      2 SEC2        0.0000 
     38 N         107.5750   18.3120  175.8490 N.am     10 SEL2        0.0000 
     39 N         107.6390   16.0630  178.4420 N.am      6 SEP2        0.0000 
     40 CA        107.4385   21.3005  175.0630 C.3       4 GLC5        0.0000 
     41 CA        109.5170   20.6950  175.3320 C.3      12 GLL5        0.0000 
     42 CA        105.3600   21.9060  174.7940 C.3       8 GLP5        0.0000 
     43 N         109.4855   22.5340  173.5595 N.am      2 SEC2        0.0000 
     44 N         108.9240   21.7540  174.5970 N.am     10 SEL2        0.0000 
     45 N         110.0470   23.3140  172.5220 N.am      6 SEP2        0.0000 
     46 CA        112.5210   21.7095  174.9280 C.3       4 GLC5        0.0000 
     47 CA        110.9510   20.9050  175.8180 C.3      12 GLL5        0.0000 
     48 CA        114.0910   22.5140  174.0380 C.3       8 GLP5        0.0000 
     49 N         110.2410   23.5060  175.5415 N.am      2 SEC2        0.0000 
     50 N         111.1200   22.2320  176.3050 N.am     10 SEL2        0.0000 
     51 N         109.3620   24.7800  174.7780 N.am      6 SEP2        0.0000 
     52 O         112.0940   22.5660  177.2105 O.2       1 ALC1        0.0000 
     53 O         111.1200   22.2320  176.3050 O.2       9 ALL1        0.0000 
     54 O         113.0680   22.9000  178.1160 O.2       5 ALP1        0.0000 
     55 CA        110.7840   18.4185  178.1180 C.3       4 GLC5        0.0000 
     56 CA        111.0930   19.7850  176.8590 C.3      12 GLL5        0.0000 
     57 CA        110.4750   17.0520  179.3770 C.3       8 GLP5        0.0000 
     58 CA        110.8415   20.3995  178.7895 C.3       4 GLC5        0.0000 
     59 CA        110.5900   21.0140  180.7200 C.3       8 GLP5        0.0000 
     60 N         116.7690   17.1795  175.9375 N.am      2 SEC2        0.0000 
     61 N         115.8270   15.9260  176.6480 N.am     10 SEL2        0.0000 
     62 N         117.7110   18.4330  175.2270 N.am      6 SEP2        0.0000 
     63 N         116.7760   15.0885  177.3045 N.am      2 SEC2        0.0000 
     64 N         117.7250   14.2510  177.9610 N.am      6 SEP2        0.0000 
     65 O         116.5050   17.2240  179.0720 O.2       1 ALC1        0.0000 
     66 O         115.6590   17.7690  177.9730 O.2       9 ALL1        0.0000 
     67 O         117.3510   16.6790  180.1710 O.2       5 ALP1        0.0000 
     68 O         114.7250   18.5990  178.8300 O.2       1 ALC1        0.0000 
     69 O         113.7910   19.4290  179.6870 O.2       5 ALP1        0.0000 
     70 CA        110.8515   17.3570  177.3555 C.3       4 GLC5        0.0000 
     71 CA        111.2280   17.6620  175.3340 C.3      12 GLL5        0.0000 
     72 NZ        102.2360   22.5720  170.5310 N.4       3 LYC4        0.0000 
     73 NZ        100.9720   22.6820  170.9630 N.4      11 LYL4        0.0000 
     74 NZ        103.5000   22.4620  170.0990 N.4       7 LYP4        0.0000 
     75 N         102.2360   22.5720  170.5310 N.am      2 SEC2        0.0000 
     76 N         100.9720   22.6820  170.9630 N.am     10 SEL2        0.0000 
     77 N         103.5000   22.4620  170.0990 N.am      6 SEP2        0.0000 
     78 N         101.2340   24.1075  171.2415 N.am      2 SEC2        0.0000 
     79 N         101.4960   25.5330  171.5200 N.am      6 SEP2        0.0000 
     80 NZ         97.5515   22.3055  169.8005 N.4       3 LYC4        0.0000 
     81 NZ         98.8910   21.8500  169.6990 N.4      11 LYL4        0.0000 
     82 NZ         95.4990   22.5990  171.0090 N.4       7 LYP4        0.0000 
     83 N          97.5515   22.3055  169.8005 N.am      2 SEC2        0.0000 
     84 N          98.8910   21.8500  169.6990 N.am     10 SEL2        0.0000 
     85 N          96.2120   22.7610  169.9020 N.am      6 SEP2        0.0000 
     86 NZ         97.4670   22.7125  170.9855 N.4       3 LYC4        0.0000 
     87 NZ         98.7220   22.6640  172.0690 N.4      11 LYL4        0.0000 
     88 N          99.0185   23.7130  172.9185 N.am      2 SEC2        0.0000 
     89 N          98.7220   22.6640  172.0690 N.am     10 SEL2        0.0000 
     90 N          99.3150   24.7620  173.7680 N.am      6 SEP2        0.0000 
     91 N          97.4170   22.5195  172.1185 N.am      2 SEC2        0.0000 
     92 N          96.1120   22.3750  172.1680 N.am      6 SEP2        0.0000 
     93 N          97.4670   22.7125  170.9855 N.am      2 SEC2        0.0000 
     94 CA        102.7583   20.9273  172.5340 C.3       4 GLC5        0.0000 
     95 CA        104.4060   22.1480  172.4360 C.3       8 GLP5        0.0000 
     96 CA         98.9878   19.7498  176.8527 C.3       4 GLC5        0.0000 
     97 CA        100.5160   19.1580  178.1020 C.3       8 GLP5        0.0000 
     98 CA         96.5105   19.6788  177.8750 C.3       4 GLC5        0.0000 
     99 CA         97.3520   20.8220  176.1110 C.3      12 GLL5        0.0000 
    100 CA         96.2780   21.2589  174.6008 C.3       4 GLC5        0.0000 
    101 CA         96.0500   20.8030  176.7390 C.3      12 GLL5        0.0000 
    102 CA        108.2240   21.9695  176.7063 C.3       4 GLC5        0.0000 
    103 CA        107.4760   19.5980  176.5330 C.3      12 GLL5        0.0000 
    104 CA        108.3060   23.9900  176.8260 C.3       8 GLP5        0.0000 
    105 CA        106.7510   20.9275  175.6902 C.3       4 GLC5        0.0000 
    106 CA        108.8080   20.3000  176.6400 C.3      12 GLL5        0.0000 
    107 CA        109.2700   22.3950  176.2005 C.3       4 GLC5        0.0000 
    108 CA        110.5625   20.9445  173.7120 C.3       4 GLC5        0.0000 
    109 CA        110.8910   21.0890  171.8490 C.3       8 GLP5        0.0000 
    110 CA        111.9555   17.3980  178.0195 C.3       4 GLC5        0.0000 
    111 CA        113.0550   18.3030  176.8700 C.3      12 GLL5        0.0000 
    112 CA        111.9342   14.7037  174.6343 C.3       4 GLC5        0.0000 
    113 CA        113.2600   16.2880  175.4490 C.3      12 GLL5        0.0000 
    114 CA        111.2580   12.9940  174.0950 C.3       8 GLP5        0.0000 
@<TRIPOS>BOND
@<TRIPOS>SUBSTRUCTURE
     1 ALC1       20 GROUP        1 X    ALC  0     ROOT ALC X 1
     2 SEC2        1 GROUP        1 X    SEC  0     **** SEC X 2
     3 LYC4       72 GROUP        1 X    LYC  0     **** LYC X 4
     4 GLC5        9 GROUP        1 X    GLC  0     **** GLC X 6
     5 ALP1       22 GROUP        1 Y    ALP  0     ROOT ALP Y 8
     6 SEP2        3 GROUP        1 Y    SEP  0     **** SEP Y 9
     7 LYP4       74 GROUP        1 Y    LYP  0     **** LYP Y 11
     8 GLP5       11 GROUP        1 Y    GLP  0     **** GLP Y 13
     9 ALL1       21 GROUP        1 Z    ALL  0     ROOT ALL Z 15
    10 SEL2        2 GROUP        1 Z    SEL  0     **** SEL Z 16
    11 LYL4       73 GROUP        1 Z    LYL  0     **** LYL Z 18
    12 GLL5       10 GROUP        1 Z    GLL  0     **** GLL Z 20
@<TRIPOS>SET

