#    Name: 2hdj_NDP_1_ligand
#    Modification time : Tue Mar 25 15:55:01 2014

@<TRIPOS>MOLECULE
2hdj_NDP_1_ligand
   74    78     1     0     0
SMALL
NO_CHARGES


@<TRIPOS>ATOM
      1 PA        104.3280   18.0060  176.0790 P.3       1 NDP501      0.0000 
      2 O1A       104.4200   16.5380  176.3320 O.co2     1 NDP501      0.0000 
      3 O2A       104.3110   18.9530  177.2140 O.co2     1 NDP501      0.0000 
      4 O5B       103.0370   18.2850  175.1390 O.3       1 NDP501      0.0000 
      5 C5B       102.6060   17.3550  174.1170 C.3       1 NDP501      0.0000 
      6 C4B       101.4340   17.9910  173.3520 C.3       1 NDP501      0.0000 
      7 O4B       100.4060   18.4110  174.2780 O.3       1 NDP501      0.0000 
      8 C3B       101.7410   19.2650  172.5430 C.3       1 NDP501      0.0000 
      9 O3B       102.0450   18.9190  171.2040 O.3       1 NDP501      0.0000 
     10 C2B       100.4800   20.1480  172.7210 C.3       1 NDP501      0.0000 
     11 O2B        99.8330   20.4960  171.4950 O.3       1 NDP501      0.0000 
     12 C1B        99.5590   19.3310  173.6120 C.3       1 NDP501      0.0000 
     13 N9A        98.8410   20.0720  174.6650 N.pl3     1 NDP501      0.0000 
     14 C8A        99.3230   21.1310  175.4260 C.2       1 NDP501      0.0000 
     15 N7A        98.4500   21.5970  176.3000 N.2       1 NDP501      0.0000 
     16 C5A        97.3520   20.8220  176.1110 C.ar      1 NDP501      0.0000 
     17 C6A        96.0500   20.8030  176.7390 C.ar      1 NDP501      0.0000 
     18 N6A        95.7340   21.6670  177.7140 N.pl3     1 NDP501      0.0000 
     19 N1A        95.1300   19.8550  176.2980 N.ar      1 NDP501      0.0000 
     20 C2A        95.4530   18.9640  175.2960 C.ar      1 NDP501      0.0000 
     21 N3A        96.6590   18.8970  174.6360 N.ar      1 NDP501      0.0000 
     22 C4A        97.5670   19.8610  175.0960 C.ar      1 NDP501      0.0000 
     23 O3        105.5230   18.4190  175.0930 O.3       1 NDP501      0.0000 
     24 PN        106.8510   17.8470  174.4580 P.3       1 NDP501      0.0000 
     25 O1N       107.4220   16.5540  174.8510 O.co2     1 NDP501      0.0000 
     26 O2N       107.6490   18.9400  173.7800 O.co2     1 NDP501      0.0000 
     27 O5D       107.5750   18.3120  175.8490 O.3       1 NDP501      0.0000 
     28 C5D       107.4760   19.5980  176.5330 C.3       1 NDP501      0.0000 
     29 C4D       108.8080   20.3000  176.6400 C.3       1 NDP501      0.0000 
     30 O4D       109.7890   19.4410  177.2870 O.3       1 NDP501      0.0000 
     31 C3D       109.5170   20.6950  175.3320 C.3       1 NDP501      0.0000 
     32 O3D       108.9240   21.7540  174.5970 O.3       1 NDP501      0.0000 
     33 C2D       110.9510   20.9050  175.8180 C.3       1 NDP501      0.0000 
     34 O2D       111.1200   22.2320  176.3050 O.3       1 NDP501      0.0000 
     35 C1D       111.0930   19.7850  176.8590 C.3       1 NDP501      0.0000 
     36 N1N       111.7900   18.5500  176.3310 N.pl3     1 NDP501      0.0000 
     37 C2N       113.0550   18.3030  176.8700 C.2       1 NDP501      0.0000 
     38 C3N       113.8170   17.1850  176.4540 C.2       1 NDP501      0.0000 
     39 C7N       115.1850   16.9120  177.0350 C.2       1 NDP501      0.0000 
     40 O7N       115.8270   15.9260  176.6480 O.2       1 NDP501      0.0000 
     41 N7N       115.6590   17.7690  177.9730 N.am      1 NDP501      0.0000 
     42 C4N       113.2600   16.2880  175.4490 C.3       1 NDP501      0.0000 
     43 C5N       111.9610   16.5390  174.8980 C.2       1 NDP501      0.0000 
     44 C6N       111.2280   17.6620  175.3340 C.2       1 NDP501      0.0000 
     45 P2B        99.6060   22.0290  171.0240 P.3       1 NDP501      0.0000 
     46 O1X       100.9720   22.6820  170.9630 O.co2     1 NDP501      0.0000 
     47 O2X        98.8910   21.8500  169.6990 O.co2     1 NDP501      0.0000 
     48 O3X        98.7220   22.6640  172.0690 O.co2     1 NDP501      0.0000 
     49 H         102.2577   16.4202  174.5475 H         1 NDP501      0.0000 
     50 H         103.3991   17.1480  173.4039 H         1 NDP501      0.0000 
     51 H         101.0097   17.2618  172.6691 H         1 NDP501      0.0000 
     52 H         102.5541   19.7591  173.0525 H         1 NDP501      0.0000 
     53 H         100.7836   21.0173  173.2925 H         1 NDP501      0.0000 
     54 H          98.8651   18.7912  172.9894 H         1 NDP501      0.0000 
     55 H         100.2490   21.4804  175.2960 H         1 NDP501      0.0000 
     56 H          96.4788   21.9300  178.3273 H         1 NDP501      0.0000 
     57 H          94.7818   21.9712  177.7408 H         1 NDP501      0.0000 
     58 H          94.6958   18.2607  175.0058 H         1 NDP501      0.0000 
     59 H         107.0701   19.4618  177.5524 H         1 NDP501      0.0000 
     60 H         106.7719   20.2641  176.0009 H         1 NDP501      0.0000 
     61 H         108.7113   21.2049  177.2392 H         1 NDP501      0.0000 
     62 H         109.5543   19.7451  174.7442 H         1 NDP501      0.0000 
     63 H         111.5905   20.6600  174.9897 H         1 NDP501      0.0000 
     64 H         111.6676   20.1824  177.6915 H         1 NDP501      0.0000 
     65 H         113.4455   18.9381  177.5800 H         1 NDP501      0.0000 
     66 H         115.0598   18.5323  178.2146 H         1 NDP501      0.0000 
     67 H         116.5658   17.5619  178.3402 H         1 NDP501      0.0000 
     68 H         113.2857   15.2206  175.8723 H         1 NDP501      0.0000 
     69 H         114.0187   16.2010  174.5910 H         1 NDP501      0.0000 
     70 H         111.5812   15.9081  174.2008 H         1 NDP501      0.0000 
     71 H         110.3059   17.8627  174.9599 H         1 NDP501      0.0000 
     72 H         101.3648   19.4009  170.6515 H         1 NDP501      0.0000 
     73 H         108.8524   21.4106  173.6606 H         1 NDP501      0.0000 
     74 H         111.9020   22.1819  176.9262 H         1 NDP501      0.0000 
@<TRIPOS>BOND
     1    2    1 ar   
     2    3    1 ar   
     3    4    1 1    
     4   23    1 1    
     5    5    4 1    
     6    6    5 1    
     7   49    5 1    
     8   50    5 1    
     9    7    6 1    
    10    8    6 1    
    11   51    6 1    
    12   12    7 1    
    13    9    8 1    
    14   10    8 1    
    15   52    8 1    
    16   72    9 1    
    17   11   10 1    
    18   12   10 1    
    19   53   10 1    
    20   45   11 1    
    21   13   12 1    
    22   54   12 1    
    23   14   13 1    
    24   22   13 1    
    25   15   14 2    
    26   55   14 1    
    27   16   15 1    
    28   17   16 ar   
    29   22   16 ar   
    30   18   17 1    
    31   19   17 ar   
    32   56   18 1    
    33   57   18 1    
    34   20   19 ar   
    35   21   20 ar   
    36   58   20 1    
    37   22   21 ar   
    38   24   23 1    
    39   25   24 ar   
    40   26   24 ar   
    41   27   24 1    
    42   28   27 1    
    43   29   28 1    
    44   59   28 1    
    45   60   28 1    
    46   30   29 1    
    47   31   29 1    
    48   61   29 1    
    49   35   30 1    
    50   32   31 1    
    51   33   31 1    
    52   62   31 1    
    53   73   32 1    
    54   34   33 1    
    55   35   33 1    
    56   63   33 1    
    57   74   34 1    
    58   36   35 1    
    59   64   35 1    
    60   37   36 1    
    61   44   36 1    
    62   38   37 2    
    63   65   37 1    
    64   39   38 1    
    65   42   38 1    
    66   40   39 2    
    67   41   39 am   
    68   66   41 1    
    69   67   41 1    
    70   43   42 1    
    71   68   42 1    
    72   69   42 1    
    73   44   43 2    
    74   70   43 1    
    75   71   44 1    
    76   46   45 ar   
    77   47   45 ar   
    78   48   45 ar   
@<TRIPOS>SUBSTRUCTURE
     1 NDP501      1 GROUP   
@<TRIPOS>SET

