#    Name: 3vt8_YI3_1_INTS_M
#    Modification time : Tue Mar 25 01:33:54 2014

@<TRIPOS>MOLECULE
3vt8_YI3_1_INTS_M
  124     0     9     0     0
SMALL
NO_CHARGES


@<TRIPOS>ATOM
      1 N          10.6570   -3.1895   28.0195 N.am      2 SEC2        0.0000 
      2 N           9.4670   -2.5950   28.3980 N.am      8 SEL2        0.0000 
      3 N          11.8470   -3.7840   27.6410 N.am      5 SEP2        0.0000 
      4 O          10.0400   -2.1900   29.5910 O.2       1 ALC1        0.0000 
      5 O           9.4670   -2.5950   28.3980 O.2       7 ALL1        0.0000 
      6 O          10.6130   -1.7850   30.7840 O.2       4 ALP1        0.0000 
      7 CA          6.1395   -0.3000   28.8550 C.3       3 GLC5        0.0000 
      8 CA          7.8080   -0.8700   28.3630 C.3       9 GLL5        0.0000 
      9 CA          4.4710    0.2700   29.3470 C.3       6 GLP5        0.0000 
     10 CA          9.2805   -0.7405   29.9245 C.3       3 GLC5        0.0000 
     11 CA         10.7530   -0.6110   31.4860 C.3       6 GLP5        0.0000 
     12 CA          7.0335   -1.8560   29.8990 C.3       3 GLC5        0.0000 
     13 CA          6.2590   -2.8420   31.4350 C.3       6 GLP5        0.0000 
     14 CA          7.9380   -4.3645   27.1935 C.3       3 GLC5        0.0000 
     15 CA          7.9560   -2.5800   26.5180 C.3       9 GLL5        0.0000 
     16 CA          7.9200   -6.1490   27.8690 C.3       6 GLP5        0.0000 
     17 CA          5.8135   -2.7515   26.6660 C.3       3 GLC5        0.0000 
     18 CA          3.6710   -2.9230   26.8140 C.3       6 GLP5        0.0000 
     19 CA          6.9425   -3.5710   24.9525 C.3       3 GLC5        0.0000 
     20 CA          5.9290   -4.5620   23.3870 C.3       6 GLP5        0.0000 
     21 CA          8.6770   -4.0060   25.2255 C.3       3 GLC5        0.0000 
     22 CA          9.3980   -5.4320   23.9330 C.3       6 GLP5        0.0000 
     23 CA         11.3755   -2.2520   27.6480 C.3       3 GLC5        0.0000 
     24 CA          9.8420   -0.8800   26.7990 C.3       9 GLL5        0.0000 
     25 CA         12.9090   -3.6240   28.4970 C.3       6 GLP5        0.0000 
     26 CA         10.6825   -0.2190   29.5555 C.3       3 GLC5        0.0000 
     27 CA         10.6120    0.1730   27.6250 C.3       9 GLL5        0.0000 
     28 CA         13.1335   -1.2140   25.8355 C.3       3 GLC5        0.0000 
     29 CA         12.0410    0.2950   27.0780 C.3       9 GLL5        0.0000 
     30 CA         14.2260   -2.7230   24.5930 C.3       6 GLP5        0.0000 
     31 CA         12.4750   -1.6645   27.7875 C.3       3 GLC5        0.0000 
     32 CA         15.6755   -0.8435   27.8855 C.3       3 GLC5        0.0000 
     33 CA         13.8860    0.0860   28.7870 C.3       9 GLL5        0.0000 
     34 CA         17.4650   -1.7730   26.9840 C.3       6 GLP5        0.0000 
     35 CA         12.3195   -0.2625   30.1365 C.3       3 GLC5        0.0000 
     36 CA         14.5090   -0.8355   30.1365 C.3       3 GLC5        0.0000 
     37 CA         15.1320   -1.7570   31.4860 C.3       6 GLP5        0.0000 
     38 CA         15.8115    1.2215   28.9370 C.3       3 GLC5        0.0000 
     39 CA         17.7370    2.3570   29.0870 C.3       6 GLP5        0.0000 
     40 CA         13.3975   -1.7690   28.6420 C.3       3 GLC5        0.0000 
     41 CA         15.8340    2.1815   28.0460 C.3       3 GLC5        0.0000 
     42 CA         13.9310    2.0060   27.0050 C.3       9 GLL5        0.0000 
     43 CA         14.3425   -0.7200   25.1605 C.3       3 GLC5        0.0000 
     44 CA         14.4590    1.2830   25.7280 C.3       9 GLL5        0.0000 
     45 CA         14.8895    1.7560   22.9880 C.3       3 GLC5        0.0000 
     46 CA         15.1020    2.3720   24.8550 C.3       9 GLL5        0.0000 
     47 CA         14.6770    1.1400   21.1210 C.3       6 GLP5        0.0000 
     48 CA         10.5890    4.8235   25.8950 C.3       3 GLC5        0.0000 
     49 CA         12.1370    3.2540   25.5080 C.3       9 GLL5        0.0000 
     50 CA          9.0410    6.3930   26.2820 C.3       6 GLP5        0.0000 
     51 CA         11.3645    4.7780   24.1035 C.3       3 GLC5        0.0000 
     52 CA         10.5920    6.3020   22.6990 C.3       6 GLP5        0.0000 
     53 CA         11.0810    2.0280   24.4810 C.3       3 GLC5        0.0000 
     54 CA         10.0250    0.8020   23.4540 C.3       6 GLP5        0.0000 
     55 CA         11.2105    4.9100   27.9860 C.3       3 GLC5        0.0000 
     56 CA         13.2680    4.5370   27.4580 C.3       9 GLL5        0.0000 
     57 CA          9.1530    5.2830   28.5140 C.3       6 GLP5        0.0000 
     58 CA         11.1615    6.1910   26.5605 C.3       3 GLC5        0.0000 
     59 CA         13.2820    5.9890   26.8390 C.3       9 GLL5        0.0000 
     60 CA         13.0180    7.9080   27.1040 C.3       3 GLC5        0.0000 
     61 CA         12.7540    9.8270   27.3690 C.3       6 GLP5        0.0000 
     62 CA         13.3595    7.8790   25.3660 C.3       3 GLC5        0.0000 
     63 CA         14.4390    6.2560   25.8240 C.3       9 GLL5        0.0000 
     64 CA         12.2800    9.5020   24.9080 C.3       6 GLP5        0.0000 
     65 CA         14.2340    8.2250   27.0005 C.3       3 GLC5        0.0000 
     66 CA         15.7140    6.6230   26.6320 C.3       9 GLL5        0.0000 
     67 CA         18.0705    6.0760   24.0365 C.3       3 GLC5        0.0000 
     68 CA         18.1970    6.8590   26.0890 C.3       9 GLL5        0.0000 
     69 CA         17.9440    5.2930   21.9840 C.3       6 GLP5        0.0000 
     70 CA         12.1310    5.5645   20.3170 C.3       3 GLC5        0.0000 
     71 CA         13.9590    5.2410   20.3770 C.3       9 GLL5        0.0000 
     72 CA         10.3030    5.8880   20.2570 C.3       6 GLP5        0.0000 
     73 CA         14.3180    3.1905   20.7490 C.3       3 GLC5        0.0000 
     74 CA         12.3180    6.8530   20.4775 C.3       3 GLC5        0.0000 
     75 CA         14.3330    7.8180   20.6980 C.3       9 GLL5        0.0000 
     76 CA         16.2730    8.2390   17.6845 C.3       3 GLC5        0.0000 
     77 CA         15.0130    7.8590   19.2870 C.3       9 GLL5        0.0000 
     78 CA         17.5330    8.6190   16.0820 C.3       6 GLP5        0.0000 
     79 CA         16.8570    6.8585   20.0330 C.3       3 GLC5        0.0000 
     80 CA         18.7010    5.8580   20.7790 C.3       6 GLP5        0.0000 
     81 N          17.0205    8.4745   18.4080 N.am      2 SEC2        0.0000 
     82 N          16.4370    7.8140   19.4560 N.am      8 SEL2        0.0000 
     83 N          17.6040    9.1350   17.3600 N.am      5 SEP2        0.0000 
     84 O          16.9475    8.7815   20.5120 O.2       1 ALC1        0.0000 
     85 O          16.4370    7.8140   19.4560 O.2       7 ALL1        0.0000 
     86 O          17.4580    9.7490   21.5680 O.2       4 ALP1        0.0000 
     87 CA         16.0080    6.9540   17.1320 C.3       3 GLC5        0.0000 
     88 CA         14.5710    6.6630   18.3680 C.3       9 GLL5        0.0000 
     89 CA         17.4450    7.2450   15.8960 C.3       6 GLP5        0.0000 
     90 CA         16.1670    4.2620   18.3435 C.3       3 GLC5        0.0000 
     91 CA         14.7730    5.2870   19.0710 C.3       9 GLL5        0.0000 
     92 CA         17.5610    3.2370   17.6160 C.3       6 GLP5        0.0000 
     93 N          14.5615    4.1185   16.8705 N.am      2 SEC2        0.0000 
     94 N          14.3200    4.2310   18.2230 N.am      8 SEL2        0.0000 
     95 N          14.8030    4.0060   15.5180 N.am      5 SEP2        0.0000 
     96 O          13.0150    3.7225   18.3545 O.2       1 ALC1        0.0000 
     97 O          14.3200    4.2310   18.2230 O.2       7 ALL1        0.0000 
     98 O          11.7100    3.2140   18.4860 O.2       4 ALP1        0.0000 
     99 CA         10.5795    0.3864   25.2995 C.3       3 GLC5        0.0000 
    100 CA         13.2703    1.9760   29.9438 C.3       3 GLC5        0.0000 
    101 CA         13.0570    1.0780   27.9480 C.3       9 GLL5        0.0000 
    102 CA         13.0690    3.3700   31.5200 C.3       6 GLP5        0.0000 
    103 CA         16.5947    0.7238   25.0497 C.3       3 GLC5        0.0000 
    104 CA         18.4090   -0.3800   24.8080 C.3       6 GLP5        0.0000 
    105 CA         13.4200    5.4940   28.9847 C.3       3 GLC5        0.0000 
    106 CA         13.5650    5.7250   30.8210 C.3       6 GLP5        0.0000 
    107 CA         19.9398    8.2690   26.8462 C.3       3 GLC5        0.0000 
    108 CA         21.3900    9.5380   26.9070 C.3       6 GLP5        0.0000 
    109 CA         20.2623    6.2620   26.8218 C.3       3 GLC5        0.0000 
    110 CA         18.7820    7.1410   27.4820 C.3       9 GLL5        0.0000 
    111 CA         22.0350    5.5240   26.8580 C.3       6 GLP5        0.0000 
    112 CA         16.3537    5.1810   23.1097 C.3       3 GLC5        0.0000 
    113 CA         14.7180    4.9950   24.9380 C.3       9 GLL5        0.0000 
    114 CA         16.2362    5.8093   21.9945 C.3       3 GLC5        0.0000 
    115 CA         14.7060    6.2590   22.6800 C.3       9 GLL5        0.0000 
    116 CA         12.5731    6.1742   22.4586 C.3       3 GLC5        0.0000 
    117 CA         14.3510    6.3920   21.3300 C.3       9 GLL5        0.0000 
    118 CA         16.1550    5.2785   20.8540 C.3       3 GLC5        0.0000 
    119 CA         14.3175    9.7957   19.4787 C.3       3 GLC5        0.0000 
    120 CA         13.9620   11.7530   18.9650 C.3       6 GLP5        0.0000 
    121 CA         12.7600    8.5747   19.2777 C.3       3 GLC5        0.0000 
    122 CA         10.8470    9.3110   18.5630 C.3       6 GLP5        0.0000 
    123 CA         16.1615    9.3077   20.3017 C.3       3 GLC5        0.0000 
    124 CA         17.6500   10.7770   20.6110 C.3       6 GLP5        0.0000 
@<TRIPOS>BOND
@<TRIPOS>SUBSTRUCTURE
     1 ALC1        4 GROUP        1 X    ALC  0     ROOT ALC X 1
     2 SEC2        1 GROUP        1 X    SEC  0     **** SEC X 2
     3 GLC5        7 GROUP        1 X    GLC  0     **** GLC X 6
     4 ALP1        6 GROUP        1 Y    ALP  0     ROOT ALP Y 8
     5 SEP2        3 GROUP        1 Y    SEP  0     **** SEP Y 9
     6 GLP5        9 GROUP        1 Y    GLP  0     **** GLP Y 13
     7 ALL1        5 GROUP        1 Z    ALL  0     ROOT ALL Z 15
     8 SEL2        2 GROUP        1 Z    SEL  0     **** SEL Z 16
     9 GLL5        8 GROUP        1 Z    GLL  0     **** GLL Z 20
@<TRIPOS>SET

