#    Name: 3vt8_YI3_1_ligand
#    Modification time : Tue Mar 25 01:33:54 2014

@<TRIPOS>MOLECULE
3vt8_YI3_1_ligand
   85    87     1     0     0
SMALL
NO_CHARGES


@<TRIPOS>ATOM
      1 O03         9.4670   -2.5950   28.3980 O.3       1 YI3500      0.0000 
      2 C25         8.7520   -1.7250   27.5120 C.3       1 YI3500      0.0000 
      3 C26         7.8080   -0.8700   28.3630 C.3       1 YI3500      0.0000 
      4 C27         7.9560   -2.5800   26.5180 C.3       1 YI3500      0.0000 
      5 C24         9.8420   -0.8800   26.7990 C.3       1 YI3500      0.0000 
      6 C23        10.6120    0.1730   27.6250 C.3       1 YI3500      0.0000 
      7 C22        12.0410    0.2950   27.0780 C.3       1 YI3500      0.0000 
      8 C20        13.0570    1.0780   27.9480 C.3       1 YI3500      0.0000 
      9 C21        13.8860    0.0860   28.7870 C.3       1 YI3500      0.0000 
     10 C17        13.9310    2.0060   27.0050 C.3       1 YI3500      0.0000 
     11 C16        14.4590    1.2830   25.7280 C.3       1 YI3500      0.0000 
     12 C15        15.1020    2.3720   24.8550 C.3       1 YI3500      0.0000 
     13 C14        14.8160    3.6360   25.7080 C.3       1 YI3500      0.0000 
     14 C13        13.4400    3.3800   26.4100 C.3       1 YI3500      0.0000 
     15 C18        12.1370    3.2540   25.5080 C.3       1 YI3500      0.0000 
     16 C12        13.2680    4.5370   27.4580 C.3       1 YI3500      0.0000 
     17 C11        13.2820    5.9890   26.8390 C.3       1 YI3500      0.0000 
     18 C09        14.4390    6.2560   25.8240 C.3       1 YI3500      0.0000 
     19 C28        15.7140    6.6230   26.6320 C.3       1 YI3500      0.0000 
     20 C29        16.7780    7.4200   25.8660 C.3       1 YI3500      0.0000 
     21 C30        18.1970    6.8590   26.0890 C.3       1 YI3500      0.0000 
     22 C31        18.7820    7.1410   27.4820 C.3       1 YI3500      0.0000 
     23 C08        14.7180    4.9950   24.9380 C.2       1 YI3500      0.0000 
     24 C07        14.8090    5.1430   23.5330 C.2       1 YI3500      0.0000 
     25 C06        14.7060    6.2590   22.6800 C.2       1 YI3500      0.0000 
     26 C05        14.3510    6.3920   21.3300 C.2       1 YI3500      0.0000 
     27 C10        13.9590    5.2410   20.3770 C.3       1 YI3500      0.0000 
     28 C04        14.3330    7.8180   20.6980 C.3       1 YI3500      0.0000 
     29 C03        15.0130    7.8590   19.2870 C.3       1 YI3500      0.0000 
     30 O02        16.4370    7.8140   19.4560 O.3       1 YI3500      0.0000 
     31 C02        14.5710    6.6630   18.3680 C.3       1 YI3500      0.0000 
     32 C01        14.7730    5.2870   19.0710 C.3       1 YI3500      0.0000 
     33 O01        14.3200    4.2310   18.2230 O.3       1 YI3500      0.0000 
     34 H           9.3663   -0.3653   25.9275 H         1 YI3500      0.0000 
     35 H          10.5837   -1.5833   26.3453 H         1 YI3500      0.0000 
     36 H          10.6467   -0.1425   28.6563 H         1 YI3500      0.0000 
     37 H          10.1111    1.1250   27.5398 H         1 YI3500      0.0000 
     38 H          12.0005    0.7747   26.0757 H         1 YI3500      0.0000 
     39 H          12.4463   -0.7260   26.9057 H         1 YI3500      0.0000 
     40 H          12.4925    1.7205   28.6102 H         1 YI3500      0.0000 
     41 H          14.8918    2.2590   27.5596 H         1 YI3500      0.0000 
     42 H          13.6367    0.8435   25.2132 H         1 YI3500      0.0000 
     43 H          15.1931    0.5662   26.0137 H         1 YI3500      0.0000 
     44 H          14.5965    2.4456   23.9428 H         1 YI3500      0.0000 
     45 H          16.1345    2.2195   24.7935 H         1 YI3500      0.0000 
     46 H          15.5478    3.7151   26.4874 H         1 YI3500      0.0000 
     47 H          14.0765    4.4675   28.1930 H         1 YI3500      0.0000 
     48 H          12.3183    4.3954   27.9841 H         1 YI3500      0.0000 
     49 H          13.3579    6.7113   27.6609 H         1 YI3500      0.0000 
     50 H          12.3225    6.1558   26.3345 H         1 YI3500      0.0000 
     51 H          14.1757    7.0745   25.2032 H         1 YI3500      0.0000 
     52 H          16.1673    5.6863   27.0077 H         1 YI3500      0.0000 
     53 H          15.4046    7.2003   27.5236 H         1 YI3500      0.0000 
     54 H          16.7535    8.4610   26.1955 H         1 YI3500      0.0000 
     55 H          16.5497    7.3902   24.7984 H         1 YI3500      0.0000 
     56 H          18.8691    7.2860   25.3269 H         1 YI3500      0.0000 
     57 H          18.1754    5.7692   25.9253 H         1 YI3500      0.0000 
     58 H          15.0003    4.1842   22.9973 H         1 YI3500      0.0000 
     59 H          14.9562    7.2251   23.1775 H         1 YI3500      0.0000 
     60 H          12.8994    5.3221   20.1411 H         1 YI3500      0.0000 
     61 H          14.1383    4.2908   20.8770 H         1 YI3500      0.0000 
     62 H          14.8597    8.5042   21.3588 H         1 YI3500      0.0000 
     63 H          13.3003    8.1469   20.5969 H         1 YI3500      0.0000 
     64 H          14.7112    8.7739   18.8016 H         1 YI3500      0.0000 
     65 H          15.1624    6.6881   17.4588 H         1 YI3500      0.0000 
     66 H          13.5217    6.7856   18.1210 H         1 YI3500      0.0000 
     67 H          15.8090    5.1867   19.3173 H         1 YI3500      0.0000 
     68 H           8.3073   -0.3182   29.0310 H         1 YI3500      0.0000 
     69 H           7.2724   -0.2382   27.8026 H         1 YI3500      0.0000 
     70 H           7.1576   -1.4317   28.8744 H         1 YI3500      0.0000 
     71 H           8.5530   -3.1694   25.9738 H         1 YI3500      0.0000 
     72 H           7.3003   -3.1755   26.9822 H         1 YI3500      0.0000 
     73 H           7.4365   -2.0162   25.8760 H         1 YI3500      0.0000 
     74 H          14.3906   -0.5568   28.2106 H         1 YI3500      0.0000 
     75 H          14.5577    0.5552   29.3603 H         1 YI3500      0.0000 
     76 H          13.3090   -0.4576   29.3966 H         1 YI3500      0.0000 
     77 H          11.8486    4.1405   25.1463 H         1 YI3500      0.0000 
     78 H          12.2851    2.6516   24.7237 H         1 YI3500      0.0000 
     79 H          11.3642    2.8816   26.0219 H         1 YI3500      0.0000 
     80 H          19.6999    6.7575   27.5839 H         1 YI3500      0.0000 
     81 H          18.8523    8.1218   27.6637 H         1 YI3500      0.0000 
     82 H          18.2179    6.7481   28.2082 H         1 YI3500      0.0000 
     83 H           9.6540   -2.0497   29.2150 H         1 YI3500      0.0000 
     84 H          16.6557    8.6094   20.0212 H         1 YI3500      0.0000 
     85 H          13.3662    4.0812   18.4834 H         1 YI3500      0.0000 
@<TRIPOS>BOND
     1    2    1 1    
     2   83    1 1    
     3    3    2 1    
     4    4    2 1    
     5    5    2 1    
     6   68    3 1    
     7   69    3 1    
     8   70    3 1    
     9   71    4 1    
    10   72    4 1    
    11   73    4 1    
    12    6    5 1    
    13   34    5 1    
    14   35    5 1    
    15    7    6 1    
    16   36    6 1    
    17   37    6 1    
    18    8    7 1    
    19   38    7 1    
    20   39    7 1    
    21    9    8 1    
    22   10    8 1    
    23   40    8 1    
    24   74    9 1    
    25   75    9 1    
    26   76    9 1    
    27   11   10 1    
    28   14   10 1    
    29   41   10 1    
    30   12   11 1    
    31   42   11 1    
    32   43   11 1    
    33   13   12 1    
    34   44   12 1    
    35   45   12 1    
    36   14   13 1    
    37   23   13 1    
    38   46   13 1    
    39   15   14 1    
    40   16   14 1    
    41   77   15 1    
    42   78   15 1    
    43   79   15 1    
    44   17   16 1    
    45   47   16 1    
    46   48   16 1    
    47   18   17 1    
    48   49   17 1    
    49   50   17 1    
    50   19   18 1    
    51   23   18 1    
    52   51   18 1    
    53   20   19 1    
    54   52   19 1    
    55   53   19 1    
    56   21   20 1    
    57   54   20 1    
    58   55   20 1    
    59   22   21 1    
    60   56   21 1    
    61   57   21 1    
    62   80   22 1    
    63   81   22 1    
    64   82   22 1    
    65   24   23 2    
    66   25   24 1    
    67   58   24 1    
    68   26   25 2    
    69   59   25 1    
    70   27   26 1    
    71   28   26 1    
    72   32   27 1    
    73   60   27 1    
    74   61   27 1    
    75   29   28 1    
    76   62   28 1    
    77   63   28 1    
    78   30   29 1    
    79   31   29 1    
    80   64   29 1    
    81   84   30 1    
    82   32   31 1    
    83   65   31 1    
    84   66   31 1    
    85   33   32 1    
    86   67   32 1    
    87   85   33 1    
@<TRIPOS>SUBSTRUCTURE
     1 YI3500      1 GROUP   
@<TRIPOS>SET

