#    Name: 2fzi_DH3_1_INTS_M
#    Modification time : Tue Mar 25 13:17:22 2014

@<TRIPOS>MOLECULE
2fzi_DH3_1_INTS_M
   69     0    12     0     0
SMALL
NO_CHARGES


@<TRIPOS>ATOM
      1 O          46.0995   -0.2790   15.3425 O.2       1 ALC1        0.0000 
      2 O          47.0540    0.4270   14.5440 O.2       9 ALL1        0.0000 
      3 O          45.1450   -0.9850   16.1410 O.2       5 ALP1        0.0000 
      4 O          47.4115    1.2450   15.4145 O.2       1 ALC1        0.0000 
      5 O          47.7690    2.0630   16.2850 O.2       5 ALP1        0.0000 
      6 CA         45.4990    0.0895   13.8535 C.3       4 GLC5        0.0000 
      7 CA         47.5330   -0.4070   13.5060 C.3      12 GLL5        0.0000 
      8 CA         43.4650    0.5860   14.2010 C.3       8 GLP5        0.0000 
      9 CA         46.7610   -2.0015   14.7170 C.3       4 GLC5        0.0000 
     10 CA         45.9890   -3.5960   15.9280 C.3       8 GLP5        0.0000 
     11 CA         45.1930   -2.0140   12.6300 C.3       4 GLC5        0.0000 
     12 CA         47.2350   -2.4100   12.2380 C.3      12 GLL5        0.0000 
     13 CA         43.1510   -1.6180   13.0220 C.3       8 GLP5        0.0000 
     14 CA         46.6120   -3.0030   14.0830 C.3       4 GLC5        0.0000 
     15 CA         48.2500   -4.0585   12.7400 C.3       4 GLC5        0.0000 
     16 CA         49.2650   -5.7070   13.2420 C.3       8 GLP5        0.0000 
     17 CA         46.7720   -1.3620   10.5465 C.3       4 GLC5        0.0000 
     18 CA         46.3090   -0.3140    8.8550 C.3       8 GLP5        0.0000 
     19 O          46.7780   -4.2505   10.8705 O.2       1 ALC1        0.0000 
     20 O          46.4760   -3.5740   11.9900 O.2       9 ALL1        0.0000 
     21 O          47.0800   -4.9270    9.7510 O.2       5 ALP1        0.0000 
     22 N          48.6905   -3.0100   10.5740 N.am      2 SEC2        0.0000 
     23 N          48.3490   -2.1240   11.5120 N.am     10 SEL2        0.0000 
     24 N          49.0320   -3.8960    9.6360 N.am      6 SEP2        0.0000 
     25 CA         50.1555   -0.9245   10.0890 C.3       4 GLC5        0.0000 
     26 CA         49.0870   -1.0050   11.7430 C.3      12 GLL5        0.0000 
     27 CA         51.2240   -0.8440    8.4350 C.3       8 GLP5        0.0000 
     28 CA         47.6980   -0.6595   10.2990 C.3       4 GLC5        0.0000 
     29 CA         47.9550    2.2635   12.2490 C.3       4 GLC5        0.0000 
     30 CA         49.3430    1.3010   13.2430 C.3      12 GLL5        0.0000 
     31 CA         46.5670    3.2260   11.2550 C.3       8 GLP5        0.0000 
     32 CA         49.8180    0.5290   14.8400 C.3       4 GLC5        0.0000 
     33 CA         50.2930   -0.2430   16.4370 C.3       8 GLP5        0.0000 
     34 CA         49.4480    6.1430    7.8120 C.3       4 GLC5        0.0000 
     35 CA         49.7360    4.7170    6.2320 C.3      12 GLL5        0.0000 
     36 CA         49.1600    7.5690    9.3920 C.3       8 GLP5        0.0000 
     37 NZ         46.7440    6.2650    6.8520 N.4       3 LYC4        0.0000 
     38 NZ         48.1090    6.2780    5.5330 N.4      11 LYL4        0.0000 
     39 NZ         44.9990    7.1520    7.4570 N.4       7 LYP4        0.0000 
     40 N          47.0470    6.9705    6.1295 N.am      2 SEC2        0.0000 
     41 N          48.1090    6.2780    5.5330 N.am     10 SEL2        0.0000 
     42 N          45.9850    7.6630    6.7260 N.am      6 SEP2        0.0000 
     43 NZ         46.3095    5.3995    7.4730 N.4       3 LYC4        0.0000 
     44 NZ         47.5030    4.8670    6.9780 N.4      11 LYL4        0.0000 
     45 N          46.3095    5.3995    7.4730 N.am      2 SEC2        0.0000 
     46 N          47.5030    4.8670    6.9780 N.am     10 SEL2        0.0000 
     47 N          45.1160    5.9320    7.9680 N.am      6 SEP2        0.0000 
     48 N          46.7440    6.2650    6.8520 N.am      2 SEC2        0.0000 
     49 CA         52.2030    0.6270    9.8050 C.3       4 GLC5        0.0000 
     50 CA         53.1820    2.0980   11.1750 C.3      12 GLL5        0.0000 
     51 CA         54.5915   -0.2335   10.8205 C.3       4 GLC5        0.0000 
     52 CA         55.5900    1.4290   10.0560 C.3      12 GLL5        0.0000 
     53 CA         53.5930   -1.8960   11.5850 C.3       8 GLP5        0.0000 
     54 CA         55.9325    3.7895   14.6825 C.3       4 GLC5        0.0000 
     55 CA         55.1320    2.8930   13.7980 C.3      12 GLL5        0.0000 
     56 CA         56.7330    4.6860   15.5670 C.3       8 GLP5        0.0000 
     57 CA         54.0820    4.7640   13.2025 C.3       4 GLC5        0.0000 
     58 CA         53.0320    6.6350   12.6070 C.3       8 GLP5        0.0000 
     59 CA         51.4308    0.7939    9.1755 C.3       4 GLC5        0.0000 
     60 CA         51.9480    2.2720   10.4670 C.3      12 GLL5        0.0000 
     61 CA         51.2242    2.1822    6.7313 C.3       4 GLC5        0.0000 
     62 CA         51.9480    3.3570    8.0480 C.3      12 GLL5        0.0000 
     63 CA         50.5010    0.6010    5.8940 C.3       8 GLP5        0.0000 
     64 CA         52.3915    6.1125    6.3783 C.3       4 GLC5        0.0000 
     65 CA         51.9470    4.1700    7.0890 C.3      12 GLL5        0.0000 
     66 CA         53.2140    7.7340    6.0810 C.3       8 GLP5        0.0000 
     67 CA         50.4823    2.6827    6.0705 C.3       4 GLC5        0.0000 
     68 CA         51.1910    4.8120    6.2620 C.3      12 GLL5        0.0000 
     69 CA         53.0568   -0.1196   12.0450 C.3       4 GLC5        0.0000 
@<TRIPOS>BOND
@<TRIPOS>SUBSTRUCTURE
     1 ALC1        1 GROUP        1 X    ALC  0     ROOT ALC X 1
     2 SEC2       22 GROUP        1 X    SEC  0     **** SEC X 2
     3 LYC4       37 GROUP        1 X    LYC  0     **** LYC X 4
     4 GLC5        6 GROUP        1 X    GLC  0     **** GLC X 6
     5 ALP1        3 GROUP        1 Y    ALP  0     ROOT ALP Y 8
     6 SEP2       24 GROUP        1 Y    SEP  0     **** SEP Y 9
     7 LYP4       39 GROUP        1 Y    LYP  0     **** LYP Y 11
     8 GLP5        8 GROUP        1 Y    GLP  0     **** GLP Y 13
     9 ALL1        2 GROUP        1 Z    ALL  0     ROOT ALL Z 15
    10 SEL2       23 GROUP        1 Z    SEL  0     **** SEL Z 16
    11 LYL4       38 GROUP        1 Z    LYL  0     **** LYL Z 18
    12 GLL5        7 GROUP        1 Z    GLL  0     **** GLL Z 20
@<TRIPOS>SET

