#    Name: 2fzi_DH3_1_ligand
#    Modification time : Tue Mar 25 13:17:22 2014

@<TRIPOS>MOLECULE
2fzi_DH3_1_ligand
   48    49     1     0     0
SMALL
NO_CHARGES


@<TRIPOS>ATOM
      1 N4         47.0540    0.4270   14.5440 N.pl3     1 DH3208      0.0000 
      2 C4         47.5330   -0.4070   13.5060 C.ar      1 DH3208      0.0000 
      3 N3         46.8390   -1.5470   13.2270 N.ar      1 DH3208      0.0000 
      4 C2         47.2350   -2.4100   12.2380 C.ar      1 DH3208      0.0000 
      5 N2         46.4760   -3.5740   11.9900 N.pl3     1 DH3208      0.0000 
      6 N1         48.3490   -2.1240   11.5120 N.ar      1 DH3208      0.0000 
      7 C6         49.0870   -1.0050   11.7430 C.ar      1 DH3208      0.0000 
      8 C5         48.7170   -0.0740   12.7560 C.ar      1 DH3208      0.0000 
      9 C51        49.3430    1.3010   13.2430 C.3       1 DH3208      0.0000 
     10 C1'        50.6580    1.5990   12.4650 C.ar      1 DH3208      0.0000 
     11 C6'        50.6800    2.0330   11.0950 C.ar      1 DH3208      0.0000 
     12 C52        51.9480    2.2720   10.4670 C.ar      1 DH3208      0.0000 
     13 C53        51.9610    2.7110    9.0510 C.1       1 DH3208      0.0000 
     14 C54        51.9480    3.3570    8.0480 C.1       1 DH3208      0.0000 
     15 C1         51.9470    4.1700    7.0890 C.3       1 DH3208      0.0000 
     16 C3         51.1910    4.8120    6.2620 C.3       1 DH3208      0.0000 
     17 C7         49.7360    4.7170    6.2320 C.3       1 DH3208      0.0000 
     18 C8         48.3690    5.3230    6.2470 C.2       1 DH3208      0.0000 
     19 O10        48.1090    6.2780    5.5330 O.co2     1 DH3208      0.0000 
     20 O9         47.5030    4.8670    6.9780 O.co2     1 DH3208      0.0000 
     21 C4'        53.1820    2.0980   11.1750 C.ar      1 DH3208      0.0000 
     22 O5         54.4010    2.3470   10.5040 O.3       1 DH3208      0.0000 
     23 C5'        55.5900    1.4290   10.0560 C.3       1 DH3208      0.0000 
     24 C3'        53.1380    1.6670   12.5410 C.ar      1 DH3208      0.0000 
     25 O4         54.3090    1.4830   13.2710 O.3       1 DH3208      0.0000 
     26 C4B        55.1320    2.8930   13.7980 C.3       1 DH3208      0.0000 
     27 C2'        51.8810    1.4310   13.1520 C.ar      1 DH3208      0.0000 
     28 H          46.0703    0.3897   14.7198 H         1 DH3208      0.0000 
     29 H          47.7398    0.9829   15.0137 H         1 DH3208      0.0000 
     30 H          46.4882   -3.9153   11.0501 H         1 DH3208      0.0000 
     31 H          45.9906   -3.9584   12.7752 H         1 DH3208      0.0000 
     32 H          49.9378   -0.8009   11.1878 H         1 DH3208      0.0000 
     33 H          49.5565    1.2223   14.2953 H         1 DH3208      0.0000 
     34 H          48.6281    2.0839   13.0560 H         1 DH3208      0.0000 
     35 H          49.8238    2.1662   10.5878 H         1 DH3208      0.0000 
     36 H          52.8974    3.7334    6.3192 H         1 DH3208      0.0000 
     37 H          52.7918    5.0826    7.4631 H         1 DH3208      0.0000 
     38 H          51.5307    4.6280    5.1422 H         1 DH3208      0.0000 
     39 H          51.4192    5.9741    6.2892 H         1 DH3208      0.0000 
     40 H          49.5391    3.7060    7.0538 H         1 DH3208      0.0000 
     41 H          49.5684    3.8158    5.2854 H         1 DH3208      0.0000 
     42 H          51.8603    1.1226   14.1435 H         1 DH3208      0.0000 
     43 H          56.3099    1.9507    9.5982 H         1 DH3208      0.0000 
     44 H          56.0139    0.9644   10.8335 H         1 DH3208      0.0000 
     45 H          55.2913    0.7194    9.4178 H         1 DH3208      0.0000 
     46 H          55.9583    2.6694   14.3149 H         1 DH3208      0.0000 
     47 H          55.4135    3.4678   13.0296 H         1 DH3208      0.0000 
     48 H          54.5587    3.4576   14.3917 H         1 DH3208      0.0000 
@<TRIPOS>BOND
     1    2    1 1    
     2   28    1 1    
     3   29    1 1    
     4    3    2 ar   
     5    8    2 ar   
     6    4    3 ar   
     7    5    4 1    
     8    6    4 ar   
     9   30    5 1    
    10   31    5 1    
    11    7    6 ar   
    12    8    7 ar   
    13   32    7 1    
    14    9    8 1    
    15   10    9 1    
    16   33    9 1    
    17   34    9 1    
    18   11   10 ar   
    19   27   10 ar   
    20   12   11 ar   
    21   35   11 1    
    22   13   12 1    
    23   21   12 ar   
    24   14   13 3    
    25   15   14 1    
    26   16   15 1    
    27   36   15 1    
    28   37   15 1    
    29   17   16 1    
    30   38   16 1    
    31   39   16 1    
    32   18   17 1    
    33   40   17 1    
    34   41   17 1    
    35   19   18 ar   
    36   20   18 ar   
    37   22   21 1    
    38   24   21 ar   
    39   23   22 1    
    40   43   23 1    
    41   44   23 1    
    42   45   23 1    
    43   25   24 1    
    44   27   24 ar   
    45   26   25 1    
    46   46   26 1    
    47   47   26 1    
    48   48   26 1    
    49   42   27 1    
@<TRIPOS>SUBSTRUCTURE
     1 DH3208      1 GROUP   
@<TRIPOS>SET

