#    Name: 3K37_2_CAVITY_N1_6.mol2
#    Modification time : Tue Mar 11 05:49:54 2014

@<TRIPOS>MOLECULE
3K37_2_CAVITY_N1_6.mol2
  136     0     7     0     0
SMALL
NO_CHARGES


@<TRIPOS>ATOM
      1 CA        -11.8672  -30.9443  -13.8646 C.3       6 GLY6        0.0000 
      2 CA        -12.5756  -32.8164  -13.1622 C.3       6 GLY6        0.0000 
      3 CA        -13.1614  -31.6954  -13.9686 C.3       6 GLY6        0.0000 
      4 CA        -13.7472  -30.5745  -14.7751 C.3       6 GLY6        0.0000 
      5 O         -13.8698  -33.5675  -13.2662 O.2       2 ALA2        0.0000 
      6 CA        -14.4556  -32.4466  -14.0726 C.3       6 GLY6        0.0000 
      7 CA        -15.0414  -31.3257  -14.8790 C.3       6 GLY6        0.0000 
      8 CA        -15.1640  -34.3187  -13.3702 C.3       6 GLY6        0.0000 
      9 N         -15.7498  -33.1978  -14.1766 N.2       2 ALA2        0.0000 
     10 NZ        -16.3356  -32.0768  -14.9830 N.2       4 LYS4        0.0000 
     11 CA        -10.4688  -30.6589  -11.6937 C.3       6 GLY6        0.0000 
     12 CA        -11.7630  -31.4100  -11.7977 C.3       6 GLY6        0.0000 
     13 CA        -12.3488  -30.2891  -12.6041 C.3       6 GLY6        0.0000 
     14 NZ        -12.9346  -29.1682  -13.4106 N.2       4 LYS4        0.0000 
     15 O         -13.0571  -32.1612  -11.9017 O.2       2 ALA2        0.0000 
     16 DU        -13.6430  -31.0403  -12.7081 H         7 CUB7        0.0000 
     17 DU        -14.2288  -29.9193  -13.5146 H         7 CUB7        0.0000 
     18 NZ        -14.8146  -28.7984  -14.3210 N.2       4 LYS4        0.0000 
     19 O         -14.9371  -31.7914  -12.8121 O.2       2 ALA2        0.0000 
     20 NZ        -15.5230  -30.6705  -13.6185 N.2       4 LYS4        0.0000 
     21 CA        -15.6455  -33.6636  -12.1097 C.3       6 GLY6        0.0000 
     22 CA        -16.2313  -32.5426  -12.9161 C.3       6 GLY6        0.0000 
     23 NZ        -16.8172  -31.4217  -13.7225 N.2       4 LYS4        0.0000 
     24 NZ        -17.4030  -30.3007  -14.5290 N.2       4 LYS4        0.0000 
     25 N         -17.5255  -33.2938  -13.0201 N.2       2 ALA2        0.0000 
     26 NZ        -18.1113  -32.1729  -13.8265 N.2       4 LYS4        0.0000 
     27 NZ        -18.6972  -31.0519  -14.6330 N.2       4 LYS4        0.0000 
     28 CA         -9.0703  -30.3735   -9.5228 C.3       6 GLY6        0.0000 
     29 CA        -10.9503  -30.0037  -10.4332 C.3       6 GLY6        0.0000 
     30 CA        -11.5361  -28.8828  -11.2396 C.3       6 GLY6        0.0000 
     31 CA        -12.1220  -27.7618  -12.0461 C.3       6 GLY6        0.0000 
     32 O         -11.6587  -31.8758   -9.7308 O.2       2 ALA2        0.0000 
     33 O         -12.2445  -30.7549  -10.5372 O.2       2 ALA2        0.0000 
     34 DU        -12.8303  -29.6339  -11.3436 H         7 CUB7        0.0000 
     35 NZ        -13.4161  -28.5130  -12.1501 N.2       4 LYS4        0.0000 
     36 NZ        -14.0020  -27.3921  -12.9565 N.2       4 LYS4        0.0000 
     37 O         -13.5387  -31.5060  -10.6412 O.2       2 ALA2        0.0000 
     38 NZ        -14.1245  -30.3851  -11.4476 N.2       4 LYS4        0.0000 
     39 DU        -14.7103  -29.2642  -12.2540 H         7 CUB7        0.0000 
     40 NZ        -15.2961  -28.1432  -13.0605 N.2       4 LYS4        0.0000 
     41 NZ        -14.8329  -32.2572  -10.7452 N.2       4 LYS4        0.0000 
     42 NZ        -15.4187  -31.1363  -11.5516 N.2       4 LYS4        0.0000 
     43 OG        -16.0045  -30.0153  -12.3580 O.2       1 SER1        0.0000 
     44 OG        -16.5903  -28.8944  -13.1645 O.2       1 SER1        0.0000 
     45 NZ        -16.7129  -31.8875  -11.6556 N.2       4 LYS4        0.0000 
     46 NZ        -17.2987  -30.7665  -12.4620 N.2       4 LYS4        0.0000 
     47 OG        -17.8845  -29.6456  -13.2685 O.2       1 SER1        0.0000 
     48 NZ        -18.0071  -32.6386  -11.7596 N.2       4 LYS4        0.0000 
     49 NZ        -18.5929  -31.5177  -12.5660 N.2       4 LYS4        0.0000 
     50 CA        -10.1377  -28.5974   -9.0687 C.3       6 GLY6        0.0000 
     51 CA        -10.7235  -27.4764   -9.8751 C.3       6 GLY6        0.0000 
     52 CA        -11.4319  -29.3485   -9.1727 C.3       6 GLY6        0.0000 
     53 CA        -12.0177  -28.2276   -9.9791 C.3       6 GLY6        0.0000 
     54 O         -12.6035  -27.1067  -10.7856 O.2       2 ALA2        0.0000 
     55 NZ        -12.7261  -30.0997   -9.2767 N.2       4 LYS4        0.0000 
     56 NZ        -13.3119  -28.9788  -10.0831 N.2       4 LYS4        0.0000 
     57 O         -13.8977  -27.8578  -10.8896 O.2       2 ALA2        0.0000 
     58 NZ        -13.4344  -31.9718   -8.5743 N.2       4 LYS4        0.0000 
     59 NZ        -14.6061  -29.7299  -10.1871 N.2       4 LYS4        0.0000 
     60 NZ        -15.1919  -28.6090  -10.9935 N.2       4 LYS4        0.0000 
     61 OG        -15.7777  -27.4881  -11.8000 O.2       1 SER1        0.0000 
     62 NZ        -16.4861  -29.3602  -11.0975 N.2       4 LYS4        0.0000 
     63 NZ        -17.7803  -30.1114  -11.2015 N.2       4 LYS4        0.0000 
     64 O         -11.2051  -26.8213   -8.6146 O.2       2 ALA2        0.0000 
     65 CA        -11.9134  -28.6934   -7.9122 C.3       6 GLY6        0.0000 
     66 DU        -12.4993  -27.5724   -8.7186 H         7 CUB7        0.0000 
     67 O         -13.0851  -26.4515   -9.5251 O.2       2 ALA2        0.0000 
     68 NZ        -13.2076  -29.4446   -8.0162 N.2       4 LYS4        0.0000 
     69 NZ        -13.7934  -28.3236   -8.8226 N.2       4 LYS4        0.0000 
     70 O         -14.3793  -27.2027   -9.6290 O.2       2 ALA2        0.0000 
     71 NZ        -15.0876  -29.0748   -8.9266 N.2       4 LYS4        0.0000 
     72 NZ        -15.6734  -27.9539   -9.7330 N.2       4 LYS4        0.0000 
     73 O         -16.2593  -26.8329  -10.5395 O.2       2 ALA2        0.0000 
     74 NZ        -16.9676  -28.7050   -9.8370 N.2       4 LYS4        0.0000 
     75 OG        -17.5535  -27.5841  -10.6435 O.2       1 SER1        0.0000 
     76 CA        -11.6866  -26.1661   -7.3541 C.3       6 GLY6        0.0000 
     77 NZ        -12.2724  -25.0452   -8.1606 N.2       4 LYS4        0.0000 
     78 N         -12.8583  -23.9242   -8.9670 N.2       2 ALA2        0.0000 
     79 OD1       -12.9808  -26.9173   -7.4581 O.3       3 ASP3        0.0000 
     80 OD1       -13.5666  -25.7963   -8.2646 O.3       3 ASP3        0.0000 
     81 O         -14.1524  -24.6754   -9.0710 O.2       2 ALA2        0.0000 
     82 OD1       -14.2750  -27.6685   -7.5621 O.3       3 ASP3        0.0000 
     83 O         -14.8608  -26.5475   -8.3685 O.2       2 ALA2        0.0000 
     84 O         -15.4466  -25.4266   -9.1750 O.2       2 ALA2        0.0000 
     85 NZ        -15.5692  -28.4196   -7.6661 N.2       4 LYS4        0.0000 
     86 DU        -16.1550  -27.2987   -8.4725 H         7 CUB7        0.0000 
     87 O         -16.7408  -26.1778   -9.2790 O.2       2 ALA2        0.0000 
     88 NZ        -16.8634  -29.1708   -7.7701 N.2       4 LYS4        0.0000 
     89 NZ        -17.4492  -28.0499   -8.5765 N.2       4 LYS4        0.0000 
     90 O         -18.0350  -26.9289   -9.3830 O.2       2 ALA2        0.0000 
     91 O         -18.7434  -28.8010   -8.6805 O.2       2 ALA2        0.0000 
     92 CA        -13.3398  -23.2691   -7.7065 C.3       6 GLY6        0.0000 
     93 CA        -13.9256  -22.1481   -8.5129 C.3       6 GLY6        0.0000 
     94 OD1       -14.0482  -25.1412   -7.0041 O.3       3 ASP3        0.0000 
     95 O         -14.6340  -24.0202   -7.8105 O.2       2 ALA2        0.0000 
     96 N         -15.2198  -22.8993   -8.6169 N.2       2 ALA2        0.0000 
     97 OD1       -15.3424  -25.8924   -7.1080 O.3       3 ASP3        0.0000 
     98 O         -15.9282  -24.7714   -7.9145 O.2       2 ALA2        0.0000 
     99 OD1       -16.0507  -27.7645   -6.4056 O.3       3 ASP3        0.0000 
    100 DU        -16.6366  -26.6435   -7.2120 H         7 CUB7        0.0000 
    101 O         -17.2224  -25.5226   -8.0185 O.2       2 ALA2        0.0000 
    102 NZ        -16.7591  -29.6366   -5.7032 N.2       4 LYS4        0.0000 
    103 NZ        -17.3449  -28.5156   -6.5096 N.2       4 LYS4        0.0000 
    104 DU        -17.9308  -27.3947   -7.3160 H         7 CUB7        0.0000 
    105 O         -18.5166  -26.2738   -8.1225 O.2       2 ALA2        0.0000 
    106 N         -18.0533  -30.3878   -5.8072 N.2       2 ALA2        0.0000 
    107 NZ        -18.6391  -29.2668   -6.6136 N.2       4 LYS4        0.0000 
    108 O         -19.2249  -28.1459   -7.4200 O.2       2 ALA2        0.0000 
    109 N         -19.9333  -30.0180   -6.7176 N.2       2 ALA2        0.0000 
    110 OD1       -14.5297  -24.4860   -5.7435 O.3       3 ASP3        0.0000 
    111 DU        -15.1156  -23.3651   -6.5500 H         7 CUB7        0.0000 
    112 O         -15.7014  -22.2441   -7.3564 O.2       2 ALA2        0.0000 
    113 N         -16.2872  -21.1232   -8.1628 N.2       2 ALA2        0.0000 
    114 OD1       -15.8239  -25.2372   -5.8475 O.3       3 ASP3        0.0000 
    115 O         -16.4097  -24.1163   -6.6540 O.2       2 ALA2        0.0000 
    116 O         -16.9956  -22.9953   -7.4604 O.2       2 ALA2        0.0000 
    117 OD1       -16.5323  -27.1093   -5.1451 O.3       3 ASP3        0.0000 
    118 DU        -17.1181  -25.9884   -5.9515 H         7 CUB7        0.0000 
    119 OD1       -17.7039  -24.8674   -6.7580 O.3       3 ASP3        0.0000 
    120 O         -17.2407  -28.9814   -4.4427 O.2       2 ALA2        0.0000 
    121 O         -17.8265  -27.8605   -5.2491 O.2       2 ALA2        0.0000 
    122 DU        -18.4123  -26.7395   -6.0555 H         7 CUB7        0.0000 
    123 O         -18.9981  -25.6186   -6.8620 O.2       2 ALA2        0.0000 
    124 O         -19.1207  -28.6117   -5.3531 O.2       2 ALA2        0.0000 
    125 CZ        -19.7065  -27.4907   -6.1595 C.ar      5 PHE5        0.0000 
    126 N         -20.4149  -29.3628   -5.4571 N.2       2 ALA2        0.0000 
    127 DU        -16.8913  -23.4611   -5.3935 H         7 CUB7        0.0000 
    128 O         -17.4771  -22.3402   -6.1999 O.2       2 ALA2        0.0000 
    129 DU        -18.1855  -24.2123   -5.4975 H         7 CUB7        0.0000 
    130 O         -18.7713  -23.0913   -6.3039 O.2       2 ALA2        0.0000 
    131 O         -18.8939  -26.0844   -4.7950 O.2       2 ALA2        0.0000 
    132 CZ        -19.4797  -24.9634   -5.6015 C.ar      5 PHE5        0.0000 
    133 CA        -20.0655  -23.8425   -6.4079 C.3       6 GLY6        0.0000 
    134 CZ        -20.1881  -26.8356   -4.8990 C.ar      5 PHE5        0.0000 
    135 CA        -13.9740  -33.1018  -15.3331 C.3       6 GLY6        0.0000 
    136 CA        -15.2682  -33.8529  -15.4371 C.3       6 GLY6        0.0000 
@<TRIPOS>BOND
@<TRIPOS>SUBSTRUCTURE
     1 SER1       43 GROUP   
     2 ALA2        5 GROUP   
     3 ASP3       79 GROUP   
     4 LYS4       10 GROUP   
     5 PHE5      125 GROUP   
     6 GLY6        1 GROUP   
     7 CUB7       16 GROUP   
@<TRIPOS>SET

