#    Name: 3k37_BCZ_2_INTS_M
#    Modification time : Mon Mar 24 18:08:09 2014

@<TRIPOS>MOLECULE
3k37_BCZ_2_INTS_M
   78     0    15     0     0
SMALL
NO_CHARGES


@<TRIPOS>ATOM
      1 CA        -16.9315  -31.9350  -10.6450 C.3       5 GLC5        0.0000 
      2 CA        -17.3370  -30.2550  -12.0100 C.3      15 GLL5        0.0000 
      3 CA        -16.5260  -33.6150   -9.2800 C.3      10 GLP5        0.0000 
      4 O         -17.4470  -30.5660  -14.5790 O.2       1 ALC1        0.0000 
      5 O         -17.9560  -30.9240  -13.1740 O.2      11 ALL1        0.0000 
      6 O         -16.9380  -30.2080  -15.9840 O.2       6 ALP1        0.0000 
      7 OD1       -19.8915  -31.6035  -12.5090 O.co2     3 ASC3        0.0000 
      8 OD1       -18.3300  -32.2880  -13.1720 O.co2    13 ASL3        0.0000 
      9 OD1       -21.4530  -30.9190  -11.8460 O.co2     8 ASP3        0.0000 
     10 O         -18.2940  -34.4645  -11.4095 O.2       1 ALC1        0.0000 
     11 O         -18.4090  -33.0500  -12.0160 O.2      11 ALL1        0.0000 
     12 O         -18.1790  -35.8790  -10.8030 O.2       6 ALP1        0.0000 
     13 O         -18.2040  -32.3930  -10.6010 O.2       1 ALC1        0.0000 
     14 O         -17.9990  -31.7360   -9.1860 O.2       6 ALP1        0.0000 
     15 O         -18.5635  -34.3330  -14.5725 O.2       1 ALC1        0.0000 
     16 O         -18.6210  -32.9320  -14.3690 O.2      11 ALL1        0.0000 
     17 O         -18.5060  -35.7340  -14.7760 O.2       6 ALP1        0.0000 
     18 O         -18.5295  -32.4705  -15.8055 O.2       1 ALC1        0.0000 
     19 O         -18.4380  -32.0090  -17.2420 O.2       6 ALP1        0.0000 
     20 CA        -12.8685  -30.2490  -15.8280 C.3       5 GLC5        0.0000 
     21 CA        -13.9430  -28.7940  -15.2480 C.3      15 GLL5        0.0000 
     22 CA        -11.7940  -31.7040  -16.4080 C.3      10 GLP5        0.0000 
     23 CA        -12.7255  -27.7960  -16.5290 C.3       5 GLC5        0.0000 
     24 CA        -11.5080  -26.7980  -17.8100 C.3      10 GLP5        0.0000 
     25 CA        -15.3090  -27.9875  -16.5455 C.3       5 GLC5        0.0000 
     26 CA        -16.6750  -27.1810  -17.8430 C.3      10 GLP5        0.0000 
     27 CA        -12.0555  -30.8410  -14.6485 C.3       5 GLC5        0.0000 
     28 CA        -12.3170  -29.9780  -12.8890 C.3      15 GLL5        0.0000 
     29 CA        -10.6250  -32.1595  -11.7125 C.3       5 GLC5        0.0000 
     30 CA        -11.8180  -30.4050  -11.5390 C.3      15 GLL5        0.0000 
     31 CA         -9.4320  -33.9140  -11.8860 C.3      10 GLP5        0.0000 
     32 O         -15.9545  -30.6490  -14.7890 O.2       1 ALC1        0.0000 
     33 O         -14.9710  -31.0900  -13.5940 O.2      11 ALL1        0.0000 
     34 CA        -14.2960  -34.8620  -13.4395 C.3       5 GLC5        0.0000 
     35 CA        -15.0470  -33.2380  -14.5750 C.3      15 GLL5        0.0000 
     36 CA        -13.5450  -36.4860  -12.3040 C.3      10 GLP5        0.0000 
     37 CA        -15.1275  -35.2005  -14.9090 C.3       5 GLC5        0.0000 
     38 CA        -15.2080  -37.1630  -15.2430 C.3      10 GLP5        0.0000 
     39 CA        -16.0325  -34.0970  -16.2180 C.3       5 GLC5        0.0000 
     40 CA        -17.0180  -34.9560  -17.8610 C.3      10 GLP5        0.0000 
     41 CA        -13.1195  -34.0080  -14.4395 C.3       5 GLC5        0.0000 
     42 CA        -11.1920  -34.7780  -14.3040 C.3      10 GLP5        0.0000 
     43 CA        -13.9830  -32.6335  -15.9560 C.3       5 GLC5        0.0000 
     44 CA        -12.9190  -32.0290  -17.3370 C.3      10 GLP5        0.0000 
     45 N         -13.9210  -33.6380  -11.2985 N.am      2 SEC2        0.0000 
     46 N         -14.7460  -32.9420  -12.2140 N.am     12 SEL2        0.0000 
     47 N         -13.0960  -34.3340  -10.3830 N.am      7 SEP2        0.0000 
     48 O         -15.5040  -30.2275   -9.3845 O.2       1 ALC1        0.0000 
     49 O         -15.1160  -28.9950  -10.1810 O.2      11 ALL1        0.0000 
     50 O         -15.8920  -31.4600   -8.5880 O.2       6 ALP1        0.0000 
     51 NZ        -20.6890  -27.1470  -10.7730 N.4       4 LYC4        0.0000 
     52 NZ        -19.2420  -26.9000  -10.3490 N.4      14 LYL4        0.0000 
     53 NZ        -22.3300  -28.2840  -10.2350 N.4       9 LYP4        0.0000 
     54 NZ        -19.7000  -25.6625   -9.8605 N.4       4 LYC4        0.0000 
     55 NZ        -19.3940  -23.3400   -9.4700 N.4       9 LYP4        0.0000 
     56 N         -20.2890  -27.7340   -9.8720 N.am      2 SEC2        0.0000 
     57 N         -19.2420  -26.9000  -10.3490 N.am     12 SEL2        0.0000 
     58 N         -21.3360  -28.5680   -9.3950 N.am      7 SEP2        0.0000 
     59 N         -20.6890  -27.1470  -10.7730 N.am      2 SEC2        0.0000 
     60 N         -22.1360  -27.3940  -11.1970 N.am      7 SEP2        0.0000 
     61 N         -19.7000  -25.6625   -9.8605 N.am      2 SEC2        0.0000 
     62 N         -20.1580  -24.4250   -9.3720 N.am      7 SEP2        0.0000 
     63 NZ        -16.0475  -25.2480  -11.2295 N.4       4 LYC4        0.0000 
     64 NZ        -17.1530  -26.0910  -10.7370 N.4      14 LYL4        0.0000 
     65 NZ        -15.3120  -24.2250  -12.9930 N.4       9 LYP4        0.0000 
     66 NZ        -17.7000  -24.7525  -10.4305 N.4       4 LYC4        0.0000 
     67 N         -16.7825  -25.4565  -12.1040 N.am      2 SEC2        0.0000 
     68 N         -17.1530  -26.0910  -10.7370 N.am     12 SEL2        0.0000 
     69 N         -16.4120  -24.8220  -13.4710 N.am      7 SEP2        0.0000 
     70 N         -16.0475  -25.2480  -11.2295 N.am      2 SEC2        0.0000 
     71 N         -14.9420  -24.4050  -11.7220 N.am      7 SEP2        0.0000 
     72 N         -17.7000  -24.7525  -10.4305 N.am      2 SEC2        0.0000 
     73 N         -18.2470  -23.4140  -10.1240 N.am      7 SEP2        0.0000 
     74 CA        -10.5998  -29.1168  -12.1110 C.3       5 GLC5        0.0000 
     75 CA         -9.1320  -28.0420  -12.0080 C.3      10 GLP5        0.0000 
     76 CA        -18.7473  -27.7215  -12.2927 C.3       5 GLC5        0.0000 
     77 CA        -17.4350  -28.4450  -10.4100 C.3      15 GLL5        0.0000 
     78 CA        -19.6220  -26.5510  -13.7370 C.3      10 GLP5        0.0000 
@<TRIPOS>BOND
@<TRIPOS>SUBSTRUCTURE
     1 ALC1        4 GROUP        1 X    ALC  0     ROOT ALC X 1
     2 SEC2       45 GROUP        1 X    SEC  0     **** SEC X 2
     3 ASC3        7 GROUP        1 X    ASC  0     **** ASC X 3
     4 LYC4       51 GROUP        1 X    LYC  0     **** LYC X 4
     5 GLC5        1 GROUP        1 X    GLC  0     **** GLC X 6
     6 ALP1        6 GROUP        1 Y    ALP  0     ROOT ALP Y 8
     7 SEP2       47 GROUP        1 Y    SEP  0     **** SEP Y 9
     8 ASP3        9 GROUP        1 Y    ASP  0     **** ASP Y 10
     9 LYP4       53 GROUP        1 Y    LYP  0     **** LYP Y 11
    10 GLP5        3 GROUP        1 Y    GLP  0     **** GLP Y 13
    11 ALL1        5 GROUP        1 Z    ALL  0     ROOT ALL Z 15
    12 SEL2       46 GROUP        1 Z    SEL  0     **** SEL Z 16
    13 ASL3        8 GROUP        1 Z    ASL  0     **** ASL Z 17
    14 LYL4       52 GROUP        1 Z    LYL  0     **** LYL Z 18
    15 GLL5        2 GROUP        1 Z    GLL  0     **** GLL Z 20
@<TRIPOS>SET

