#    Name: 3k37_BCZ_2_ligand
#    Modification time : Mon Mar 24 18:08:09 2014

@<TRIPOS>MOLECULE
3k37_BCZ_2_ligand
   51    51     1     0     0
SMALL
NO_CHARGES


@<TRIPOS>ATOM
      1 C2        -17.3370  -30.2550  -12.0100 C.3       1 BCZ468      0.0000 
      2 N25       -17.9560  -30.9240  -13.1740 N.pl3     1 BCZ468      0.0000 
      3 C26       -18.3300  -32.2880  -13.1720 C.cat     1 BCZ468      0.0000 
      4 N30       -18.4090  -33.0500  -12.0160 N.pl3     1 BCZ468      0.0000 
      5 N27       -18.6210  -32.9320  -14.3690 N.pl3     1 BCZ468      0.0000 
      6 C3        -16.1490  -29.3440  -12.3110 C.3       1 BCZ468      0.0000 
      7 C10       -14.8380  -30.1000  -12.5510 C.3       1 BCZ468      0.0000 
      8 C24       -13.6170  -29.1980  -12.7720 C.3       1 BCZ468      0.0000 
      9 C37       -13.7690  -28.1610  -13.8790 C.3       1 BCZ468      0.0000 
     10 C38       -13.9430  -28.7940  -15.2480 C.3       1 BCZ468      0.0000 
     11 C36       -12.3170  -29.9780  -12.8890 C.3       1 BCZ468      0.0000 
     12 C39       -11.8180  -30.4050  -11.5390 C.3       1 BCZ468      0.0000 
     13 N11       -14.9710  -31.0900  -13.5940 N.am      1 BCZ468      0.0000 
     14 C13       -14.9110  -32.4360  -13.3260 C.2       1 BCZ468      0.0000 
     15 C15       -15.0470  -33.2380  -14.5750 C.3       1 BCZ468      0.0000 
     16 O14       -14.7460  -32.9420  -12.2140 O.2       1 BCZ468      0.0000 
     17 C4        -16.0730  -28.4320  -11.0970 C.3       1 BCZ468      0.0000 
     18 O9        -15.1160  -28.9950  -10.1810 O.3       1 BCZ468      0.0000 
     19 C5        -17.4350  -28.4450  -10.4100 C.3       1 BCZ468      0.0000 
     20 C6        -17.9960  -27.0160  -10.5350 C.2       1 BCZ468      0.0000 
     21 O8        -19.2420  -26.9000  -10.3490 O.co2     1 BCZ468      0.0000 
     22 O7        -17.1530  -26.0910  -10.7370 O.co2     1 BCZ468      0.0000 
     23 C1        -18.3100  -29.3390  -11.2870 C.3       1 BCZ468      0.0000 
     24 H         -16.9989  -30.9870  -11.2704 H         1 BCZ468      0.0000 
     25 H         -18.1118  -30.3459  -14.0155 H         1 BCZ468      0.0000 
     26 H         -18.6846  -34.0038  -12.1357 H         1 BCZ468      0.0000 
     27 H         -18.1836  -32.5797  -11.1627 H         1 BCZ468      0.0000 
     28 H         -18.4959  -32.3917  -15.2011 H         1 BCZ468      0.0000 
     29 H         -18.9304  -33.8800  -14.2947 H         1 BCZ468      0.0000 
     30 H         -16.3964  -28.7404  -13.1653 H         1 BCZ468      0.0000 
     31 H         -14.6293  -30.6572  -11.5832 H         1 BCZ468      0.0000 
     32 H         -13.5103  -28.5926  -11.8026 H         1 BCZ468      0.0000 
     33 H         -12.8814  -27.5158  -13.8888 H         1 BCZ468      0.0000 
     34 H         -14.6385  -27.5286  -13.6595 H         1 BCZ468      0.0000 
     35 H         -11.5675  -29.3489  -13.3780 H         1 BCZ468      0.0000 
     36 H         -12.4856  -30.8583  -13.5161 H         1 BCZ468      0.0000 
     37 H         -15.1145  -30.7457  -14.5598 H         1 BCZ468      0.0000 
     38 H         -15.8310  -27.4595  -11.3911 H         1 BCZ468      0.0000 
     39 H         -17.3867  -28.7608   -9.4602 H         1 BCZ468      0.0000 
     40 H         -18.9629  -29.9148  -10.6718 H         1 BCZ468      0.0000 
     41 H         -18.8389  -28.7403  -11.9928 H         1 BCZ468      0.0000 
     42 H         -13.1588  -29.3624  -15.4967 H         1 BCZ468      0.0000 
     43 H         -14.7530  -29.3792  -15.2864 H         1 BCZ468      0.0000 
     44 H         -14.0449  -28.1050  -15.9655 H         1 BCZ468      0.0000 
     45 H         -10.9625  -30.9186  -11.6047 H         1 BCZ468      0.0000 
     46 H         -11.6445  -29.6215  -10.9423 H         1 BCZ468      0.0000 
     47 H         -12.4767  -30.9918  -11.0681 H         1 BCZ468      0.0000 
     48 H         -14.3235  -33.0272  -15.2323 H         1 BCZ468      0.0000 
     49 H         -15.0004  -34.2201  -14.3927 H         1 BCZ468      0.0000 
     50 H         -15.9188  -33.0661  -15.0336 H         1 BCZ468      0.0000 
     51 H         -15.6631  -29.4988   -9.5125 H         1 BCZ468      0.0000 
@<TRIPOS>BOND
     1    2    1 1    
     2    6    1 1    
     3   23    1 1    
     4   24    1 1    
     5    3    2 ar   
     6   25    2 1    
     7    4    3 ar   
     8    5    3 ar   
     9   26    4 1    
    10   27    4 1    
    11   28    5 1    
    12   29    5 1    
    13    7    6 1    
    14   17    6 1    
    15   30    6 1    
    16    8    7 1    
    17   13    7 1    
    18   31    7 1    
    19    9    8 1    
    20   11    8 1    
    21   32    8 1    
    22   10    9 1    
    23   33    9 1    
    24   34    9 1    
    25   42   10 1    
    26   43   10 1    
    27   44   10 1    
    28   12   11 1    
    29   35   11 1    
    30   36   11 1    
    31   45   12 1    
    32   46   12 1    
    33   47   12 1    
    34   14   13 am   
    35   37   13 1    
    36   15   14 1    
    37   16   14 2    
    38   48   15 1    
    39   49   15 1    
    40   50   15 1    
    41   18   17 1    
    42   19   17 1    
    43   38   17 1    
    44   51   18 1    
    45   20   19 1    
    46   23   19 1    
    47   39   19 1    
    48   21   20 ar   
    49   22   20 ar   
    50   40   23 1    
    51   41   23 1    
@<TRIPOS>SUBSTRUCTURE
     1 BCZ468      1 GROUP   
@<TRIPOS>SET

