#    Name: 4o0v_2OL_1_INTS_M
#    Modification time : Tue Mar 25 13:26:11 2014

@<TRIPOS>MOLECULE
4o0v_2OL_1_INTS_M
   85     0     9     0     0
SMALL
NO_CHARGES


@<TRIPOS>ATOM
      1 CA        -41.7540    9.7130  -11.2960 C.3       3 GLC5        0.0000 
      2 CA        -40.9260   11.3530  -11.2700 C.3       9 GLL5        0.0000 
      3 CA        -42.5820    8.0730  -11.3220 C.3       6 GLP5        0.0000 
      4 CA        -40.1195   10.3965   -9.6865 C.3       3 GLC5        0.0000 
      5 CA        -39.3130    9.4400   -8.1030 C.3       6 GLP5        0.0000 
      6 CA        -39.2520    9.9040  -11.3360 C.3       3 GLC5        0.0000 
      7 CA        -37.5780    8.4550  -11.4020 C.3       6 GLP5        0.0000 
      8 CA        -39.7110   14.9700  -13.7215 C.3       3 GLC5        0.0000 
      9 CA        -38.7850   14.2990  -11.9510 C.3       9 GLL5        0.0000 
     10 CA        -40.6370   15.6410  -15.4920 C.3       6 GLP5        0.0000 
     11 CA        -38.8500   16.2285  -12.0795 C.3       3 GLC5        0.0000 
     12 CA        -38.9150   18.1580  -12.2080 C.3       6 GLP5        0.0000 
     13 CA        -31.5045   12.2500  -12.2445 C.3       3 GLC5        0.0000 
     14 CA        -32.5020   13.3580  -13.6430 C.3       9 GLL5        0.0000 
     15 CA        -30.5070   11.1420  -10.8460 C.3       6 GLP5        0.0000 
     16 CA        -35.9590   14.1155  -15.3395 C.3       3 GLC5        0.0000 
     17 CA        -35.1220   12.5840  -14.1930 C.3       9 GLL5        0.0000 
     18 CA        -36.7960   15.6470  -16.4860 C.3       6 GLP5        0.0000 
     19 CA        -38.8675   12.8645  -15.4435 C.3       3 GLC5        0.0000 
     20 CA        -37.2590   11.5320  -14.9880 C.3       9 GLL5        0.0000 
     21 CA        -40.4760   14.1970  -15.8990 C.3       6 GLP5        0.0000 
     22 CA        -37.0275   13.5895  -15.7370 C.3       3 GLC5        0.0000 
     23 CA        -35.0640   11.0055  -17.3205 C.3       3 GLC5        0.0000 
     24 CA        -36.7620   10.9610  -16.1660 C.3       9 GLL5        0.0000 
     25 CA        -33.3660   11.0500  -18.4750 C.3       6 GLP5        0.0000 
     26 CA        -38.5795    9.1325  -18.4690 C.3       3 GLC5        0.0000 
     27 CA        -37.5420   10.0450  -16.8480 C.3       9 GLL5        0.0000 
     28 CA        -39.6170    8.2200  -20.0900 C.3       6 GLP5        0.0000 
     29 CA        -37.4625    7.8815  -17.0430 C.3       3 GLC5        0.0000 
     30 CA        -37.3830    5.7180  -17.2380 C.3       6 GLP5        0.0000 
     31 N         -39.3950    8.4960  -17.1410 N.am      2 SEC2        0.0000 
     32 N         -38.7400    9.7340  -16.3730 N.am      8 SEL2        0.0000 
     33 N         -40.0500    7.2580  -17.9090 N.am      5 SEP2        0.0000 
     34 CA        -39.8335   12.2415  -15.5780 C.3       3 GLC5        0.0000 
     35 CA        -39.1910   10.2860  -15.2570 C.3       9 GLL5        0.0000 
     36 CA        -39.3360    8.1900  -15.5400 C.3       3 GLC5        0.0000 
     37 CA        -39.4810    6.0940  -15.8230 C.3       6 GLP5        0.0000 
     38 CA        -37.8970    9.2955  -14.4860 C.3       3 GLC5        0.0000 
     39 CA        -36.6030    8.3050  -13.7150 C.3       6 GLP5        0.0000 
     40 O         -41.1780    8.7535  -15.1360 O.2       1 ALC1        0.0000 
     41 O         -40.4460    9.9260  -14.7980 O.2       7 ALL1        0.0000 
     42 O         -41.9100    7.5810  -15.4740 O.2       4 ALP1        0.0000 
     43 CA        -30.8275    7.9835  -14.4695 C.3       3 GLC5        0.0000 
     44 CA        -30.0230    8.7580  -16.2790 C.3       9 GLL5        0.0000 
     45 CA        -31.6320    7.2090  -12.6600 C.3       6 GLP5        0.0000 
     46 CA        -27.3660    6.5775  -17.4005 C.3       3 GLC5        0.0000 
     47 CA        -28.9700    7.9690  -17.0810 C.3       9 GLL5        0.0000 
     48 CA        -25.7620    5.1860  -17.7200 C.3       6 GLP5        0.0000 
     49 N         -28.0685   10.3070  -14.2805 N.am      2 SEC2        0.0000 
     50 N         -28.4790   10.4990  -15.5810 N.am      8 SEL2        0.0000 
     51 N         -27.6580   10.1150  -12.9800 N.am      5 SEP2        0.0000 
     52 O         -27.8615   11.6935  -15.8715 O.2       1 ALC1        0.0000 
     53 O         -28.4790   10.4990  -15.5810 O.2       7 ALL1        0.0000 
     54 O         -27.2440   12.8880  -16.1620 O.2       4 ALP1        0.0000 
     55 CA        -34.5912   15.3330  -14.1997 C.3       3 GLC5        0.0000 
     56 CA        -33.5330   14.0330  -13.0550 C.3       9 GLL5        0.0000 
     57 CA        -34.9890   16.8200  -15.2120 C.3       6 GLP5        0.0000 
     58 CA        -31.8253   14.2873  -14.7290 C.3       3 GLC5        0.0000 
     59 CA        -30.6330   14.8790  -16.1090 C.3       6 GLP5        0.0000 
     60 CA        -33.3885   11.5747  -16.5603 C.3       3 GLC5        0.0000 
     61 CA        -32.7580   12.2920  -14.5110 C.3       9 GLL5        0.0000 
     62 CA        -31.0460   11.2550  -13.4690 C.3       3 GLC5        0.0000 
     63 CA        -31.6680   11.5920  -15.1290 C.3       9 GLL5        0.0000 
     64 CA        -29.8790   10.5680  -12.1180 C.3       6 GLP5        0.0000 
     65 CA        -37.4310   11.3675  -18.1260 C.3       3 GLC5        0.0000 
     66 CA        -37.7100   12.2320  -19.7450 C.3       6 GLP5        0.0000 
     67 CA        -36.9396    9.4754  -14.9638 C.3       3 GLC5        0.0000 
     68 CA        -32.2985   11.1725  -16.9285 C.3       3 GLC5        0.0000 
     69 CA        -31.0682   13.1745  -15.6683 C.3       3 GLC5        0.0000 
     70 CA        -30.7940   10.9980  -15.6350 C.3       9 GLL5        0.0000 
     71 CA        -30.0617   10.5965  -14.0373 C.3       3 GLC5        0.0000 
     72 CA        -31.4950   10.7800  -17.7383 C.3       3 GLC5        0.0000 
     73 CA        -29.6950   10.2520  -16.2780 C.3       9 GLL5        0.0000 
     74 CA        -31.2017    7.1898  -16.7610 C.3       3 GLC5        0.0000 
     75 CA        -32.9070    6.0160  -16.8420 C.3       6 GLP5        0.0000 
     76 CA        -28.4142    7.9425  -15.4284 C.3       3 GLC5        0.0000 
     77 CA        -27.4140    7.1480  -14.1770 C.3       6 GLP5        0.0000 
     78 CA        -26.6705    8.5040  -18.8342 C.3       3 GLC5        0.0000 
     79 CA        -28.8880    8.5060  -18.5100 C.3       9 GLL5        0.0000 
     80 CA        -24.6570    7.7670  -19.1790 C.3       6 GLP5        0.0000 
     81 CA        -28.6795    8.7245  -20.4248 C.3       3 GLC5        0.0000 
     82 CA        -28.6750    8.2080  -22.3600 C.3       6 GLP5        0.0000 
     83 CA        -29.1983   11.6990  -19.6195 C.3       3 GLC5        0.0000 
     84 CA        -28.4800    9.9760  -18.4690 C.3       9 GLL5        0.0000 
     85 CA        -29.3800   13.0260  -21.1420 C.3       6 GLP5        0.0000 
@<TRIPOS>BOND
@<TRIPOS>SUBSTRUCTURE
     1 ALC1       40 GROUP        1 X    ALC  0     ROOT ALC X 1
     2 SEC2       31 GROUP        1 X    SEC  0     **** SEC X 2
     3 GLC5        1 GROUP        1 X    GLC  0     **** GLC X 6
     4 ALP1       42 GROUP        1 Y    ALP  0     ROOT ALP Y 8
     5 SEP2       33 GROUP        1 Y    SEP  0     **** SEP Y 9
     6 GLP5        3 GROUP        1 Y    GLP  0     **** GLP Y 13
     7 ALL1       41 GROUP        1 Z    ALL  0     ROOT ALL Z 15
     8 SEL2       32 GROUP        1 Z    SEL  0     **** SEL Z 16
     9 GLL5        2 GROUP        1 Z    GLL  0     **** GLL Z 20
@<TRIPOS>SET

