#    Name: 4o0v_2OL_1_ligand
#    Modification time : Tue Mar 25 13:26:12 2014

@<TRIPOS>MOLECULE
4o0v_2OL_1_ligand
   56    59     1     0     0
SMALL
NO_CHARGES


@<TRIPOS>ATOM
      1 C1        -40.9260   11.3530  -11.2700 C.3       1 2OL601      0.0000 
      2 O2        -40.4830   12.5880  -11.8320 O.3       1 2OL601      0.0000 
      3 C3        -39.4690   13.2490  -11.0700 C.3       1 2OL601      0.0000 
      4 C4        -38.7850   14.2990  -11.9510 C.3       1 2OL601      0.0000 
      5 N5        -38.3650   13.6690  -13.2060 N.pl3     1 2OL601      0.0000 
      6 C6        -37.0250   13.4410  -13.4320 C.2       1 2OL601      0.0000 
      7 N7        -36.0520   14.1340  -12.8920 N.2       1 2OL601      0.0000 
      8 C8        -34.8540   13.6590  -13.3200 C.ar      1 2OL601      0.0000 
      9 C9        -33.5330   14.0330  -13.0550 C.ar      1 2OL601      0.0000 
     10 C10       -32.5020   13.3580  -13.6430 C.ar      1 2OL601      0.0000 
     11 C11       -32.7580   12.2920  -14.5110 C.ar      1 2OL601      0.0000 
     12 C12       -34.0640   11.9070  -14.7800 C.ar      1 2OL601      0.0000 
     13 C13       -35.1220   12.5840  -14.1930 C.ar      1 2OL601      0.0000 
     14 N14       -36.5110   12.4640  -14.2500 N.pl3     1 2OL601      0.0000 
     15 C15       -37.2590   11.5320  -14.9880 C.ar      1 2OL601      0.0000 
     16 C16       -36.7620   10.9610  -16.1660 C.ar      1 2OL601      0.0000 
     17 C17       -37.5420   10.0450  -16.8480 C.ar      1 2OL601      0.0000 
     18 N18       -38.7400    9.7340  -16.3730 N.ar      1 2OL601      0.0000 
     19 C19       -39.1910   10.2860  -15.2570 C.ar      1 2OL601      0.0000 
     20 N20       -38.4710   11.1670  -14.5710 N.ar      1 2OL601      0.0000 
     21 N21       -40.4460    9.9260  -14.7980 N.pl3     1 2OL601      0.0000 
     22 C22       -31.6680   11.5920  -15.1290 C.1       1 2OL601      0.0000 
     23 C23       -30.7940   10.9980  -15.6350 C.1       1 2OL601      0.0000 
     24 C24       -29.6950   10.2520  -16.2780 C.3       1 2OL601      0.0000 
     25 C25       -30.0230    8.7580  -16.2790 C.3       1 2OL601      0.0000 
     26 C26       -28.9700    7.9690  -17.0810 C.3       1 2OL601      0.0000 
     27 C27       -28.8880    8.5060  -18.5100 C.3       1 2OL601      0.0000 
     28 C28       -28.4800    9.9760  -18.4690 C.3       1 2OL601      0.0000 
     29 C29       -29.5530   10.7680  -17.7250 C.3       1 2OL601      0.0000 
     30 O30       -28.4790   10.4990  -15.5810 O.3       1 2OL601      0.0000 
     31 H         -38.7011   12.5528  -10.7241 H         1 2OL601      0.0000 
     32 H         -39.8842   13.7633  -10.1998 H         1 2OL601      0.0000 
     33 H         -37.9296   14.6963  -11.4087 H         1 2OL601      0.0000 
     34 H         -39.4930   15.1040  -12.1365 H         1 2OL601      0.0000 
     35 H         -39.0835   13.4180  -13.8761 H         1 2OL601      0.0000 
     36 H         -33.3529   14.8201  -12.4138 H         1 2OL601      0.0000 
     37 H         -31.5210   13.6254  -13.4547 H         1 2OL601      0.0000 
     38 H         -34.2466   11.1181  -15.4160 H         1 2OL601      0.0000 
     39 H         -35.8368   11.2221  -16.5097 H         1 2OL601      0.0000 
     40 H         -37.1710    9.6216  -17.7171 H         1 2OL601      0.0000 
     41 H         -40.7549    9.0056  -15.0377 H         1 2OL601      0.0000 
     42 H         -40.9352   10.6175  -14.2664 H         1 2OL601      0.0000 
     43 H         -30.9998    8.6024  -16.7292 H         1 2OL601      0.0000 
     44 H         -30.0373    8.3901  -15.2566 H         1 2OL601      0.0000 
     45 H         -29.2531    6.9228  -17.1029 H         1 2OL601      0.0000 
     46 H         -28.0053    8.0753  -16.5982 H         1 2OL601      0.0000 
     47 H         -29.8557    8.4133  -18.9842 H         1 2OL601      0.0000 
     48 H         -28.1494    7.9420  -19.0635 H         1 2OL601      0.0000 
     49 H         -28.3895   10.3532  -19.4782 H         1 2OL601      0.0000 
     50 H         -27.5364   10.0738  -17.9504 H         1 2OL601      0.0000 
     51 H         -29.2777   11.8175  -17.6993 H         1 2OL601      0.0000 
     52 H         -30.5052   10.6565  -18.2337 H         1 2OL601      0.0000 
     53 H         -40.1782   10.6947  -11.1839 H         1 2OL601      0.0000 
     54 H         -41.3129   11.4783  -10.3564 H         1 2OL601      0.0000 
     55 H         -41.6327   10.9220  -11.8310 H         1 2OL601      0.0000 
     56 H         -28.1871   11.4064  -15.8835 H         1 2OL601      0.0000 
@<TRIPOS>BOND
     1    2    1 1    
     2   53    1 1    
     3   54    1 1    
     4   55    1 1    
     5    3    2 1    
     6    4    3 1    
     7   31    3 1    
     8   32    3 1    
     9    5    4 1    
    10   33    4 1    
    11   34    4 1    
    12    6    5 1    
    13   35    5 1    
    14    7    6 2    
    15   14    6 1    
    16    8    7 1    
    17    9    8 ar   
    18   13    8 ar   
    19   10    9 ar   
    20   36    9 1    
    21   11   10 ar   
    22   37   10 1    
    23   12   11 ar   
    24   22   11 1    
    25   13   12 ar   
    26   38   12 1    
    27   14   13 1    
    28   15   14 1    
    29   16   15 ar   
    30   20   15 ar   
    31   17   16 ar   
    32   39   16 1    
    33   18   17 ar   
    34   40   17 1    
    35   19   18 ar   
    36   20   19 ar   
    37   21   19 1    
    38   41   21 1    
    39   42   21 1    
    40   23   22 3    
    41   24   23 1    
    42   25   24 1    
    43   29   24 1    
    44   30   24 1    
    45   26   25 1    
    46   43   25 1    
    47   44   25 1    
    48   27   26 1    
    49   45   26 1    
    50   46   26 1    
    51   28   27 1    
    52   47   27 1    
    53   48   27 1    
    54   29   28 1    
    55   49   28 1    
    56   50   28 1    
    57   51   29 1    
    58   52   29 1    
    59   56   30 1    
@<TRIPOS>SUBSTRUCTURE
     1 2OL601      1 GROUP   
@<TRIPOS>SET

