#    Name: 3hk1_B64_1_INTS_M
#    Modification time : Tue Mar 25 14:27:05 2014

@<TRIPOS>MOLECULE
3hk1_B64_1_INTS_M
   52     0     9     0     0
SMALL
NO_CHARGES


@<TRIPOS>ATOM
      1 CA         11.2080   17.6450   -1.0950 C.3       3 GLC5        0.0000 
      2 CA         11.5380   18.6230   -2.7280 C.3       9 GLL5        0.0000 
      3 CA         10.8780   16.6670    0.5380 C.3       6 GLP5        0.0000 
      4 CA         12.6915   20.0750   -2.0755 C.3       3 GLC5        0.0000 
      5 CA         13.8450   21.5270   -1.4230 C.3       6 GLP5        0.0000 
      6 CA         13.8175   19.3345   -4.4145 C.3       3 GLC5        0.0000 
      7 CA         11.9650   18.1150   -4.0930 C.3       9 GLL5        0.0000 
      8 CA         15.6700   20.5540   -4.7360 C.3       6 GLP5        0.0000 
      9 NZ         11.5490   21.3375   -2.1695 N.4       2 LYC4        0.0000 
     10 NZ         10.3950   20.5690   -2.2000 N.4       8 LYL4        0.0000 
     11 NZ         12.6740   23.3190   -2.6940 N.4       5 LYP4        0.0000 
     12 N          11.5490   21.3375   -2.1695 N.am      1 SEC2        0.0000 
     13 N          10.3950   20.5690   -2.2000 N.am      7 SEL2        0.0000 
     14 N          12.7030   22.1060   -2.1390 N.am      4 SEP2        0.0000 
     15 CA         14.4885   18.5675  -11.4330 C.3       3 GLC5        0.0000 
     16 CA         13.9610   19.6590   -9.8820 C.3       9 GLL5        0.0000 
     17 CA         15.0160   17.4760  -12.9840 C.3       6 GLP5        0.0000 
     18 CA         16.9765   16.0380   -6.9285 C.3       3 GLC5        0.0000 
     19 CA         16.6570   16.1790   -8.8820 C.3       9 GLL5        0.0000 
     20 CA         17.2960   15.8970   -4.9750 C.3       6 GLP5        0.0000 
     21 CA         17.4470   18.0735   -8.2695 C.3       3 GLC5        0.0000 
     22 CA         18.2370   19.9680   -7.6570 C.3       6 GLP5        0.0000 
     23 CA         17.7035   14.8760   -9.4560 C.3       3 GLC5        0.0000 
     24 CA         18.7500   13.5730  -10.0300 C.3       6 GLP5        0.0000 
     25 CA         17.5455   17.0210  -10.0565 C.3       3 GLC5        0.0000 
     26 CA         18.4340   17.8630  -11.2310 C.3       6 GLP5        0.0000 
     27 CA         13.7750   22.7770  -10.4740 C.3       3 GLC5        0.0000 
     28 CA         12.6660   21.8290  -11.8870 C.3       9 GLL5        0.0000 
     29 CA         14.8840   23.7250   -9.0610 C.3       6 GLP5        0.0000 
     30 CA         11.4295   20.2670  -11.4925 C.3       3 GLC5        0.0000 
     31 CA         10.1930   18.7050  -11.0980 C.3       6 GLP5        0.0000 
     32 CA         13.0172   17.1595   -2.5953 C.3       3 GLC5        0.0000 
     33 CA         14.2830   15.9500   -1.7800 C.3       6 GLP5        0.0000 
     34 CA         15.6605   20.2743   -8.7547 C.3       3 GLC5        0.0000 
     35 CA         13.9350   18.7420   -8.3870 C.3       9 GLL5        0.0000 
     36 CA         17.3730   21.3480   -8.3750 C.3       6 GLP5        0.0000 
     37 CA         13.8111   22.0075   -8.9304 C.3       3 GLC5        0.0000 
     38 CA         11.4656   19.4975   -9.9489 C.3       3 GLC5        0.0000 
     39 CA         12.6220   20.6750   -9.3110 C.3       9 GLL5        0.0000 
     40 CA         13.2588   22.9750   -9.5592 C.3       3 GLC5        0.0000 
     41 CA         12.1090   21.7390  -10.2140 C.3       9 GLL5        0.0000 
     42 CA         10.9132   20.4650  -10.5778 C.3       3 GLC5        0.0000 
     43 CA         11.8400   25.1917  -12.2142 C.3       3 GLC5        0.0000 
     44 CA         10.9470   23.5530  -11.0240 C.3       9 GLL5        0.0000 
     45 CA         12.3560   26.9590  -12.8210 C.3       6 GLP5        0.0000 
     46 CA         12.7605   24.2627  -10.3388 C.3       3 GLC5        0.0000 
     47 CA         11.7010   23.2960  -12.1910 C.3       9 GLL5        0.0000 
     48 CA         14.1970   25.1010   -9.0700 C.3       6 GLP5        0.0000 
     49 CA         13.8302   22.1813  -13.0130 C.3       3 GLC5        0.0000 
     50 CA         15.4770   21.8000  -13.9870 C.3       6 GLP5        0.0000 
     51 CA          9.5924   23.3895  -11.8274 C.3       3 GLC5        0.0000 
     52 CA          7.8080   23.5650  -12.3280 C.3       6 GLP5        0.0000 
@<TRIPOS>BOND
@<TRIPOS>SUBSTRUCTURE
     1 SEC2       12 GROUP        1 X    SEC  0     ROOT SEC X 2
     2 LYC4        9 GROUP        1 X    LYC  0     **** LYC X 4
     3 GLC5        1 GROUP        1 X    GLC  0     **** GLC X 6
     4 SEP2       14 GROUP        1 Y    SEP  0     ROOT SEP Y 9
     5 LYP4       11 GROUP        1 Y    LYP  0     **** LYP Y 11
     6 GLP5        3 GROUP        1 Y    GLP  0     **** GLP Y 13
     7 SEL2       13 GROUP        1 Z    SEL  0     ROOT SEL Z 16
     8 LYL4       10 GROUP        1 Z    LYL  0     **** LYL Z 18
     9 GLL5        2 GROUP        1 Z    GLL  0     **** GLL Z 20
@<TRIPOS>SET

