#    Name: 3hk1_B64_1_ligand
#    Modification time : Tue Mar 25 14:27:05 2014

@<TRIPOS>MOLECULE
3hk1_B64_1_ligand
   32    33     1     0     0
SMALL
NO_CHARGES


@<TRIPOS>ATOM
      1 C1         10.2870   19.4680   -2.7600 C.2       1 B64132      0.0000 
      2 C2         11.5380   18.6230   -2.7280 C.2       1 B64132      0.0000 
      3 C3         11.9650   18.1150   -4.0930 C.2       1 B64132      0.0000 
      4 O1         10.3950   20.5690   -2.2000 O.co2     1 B64132      0.0000 
      5 O2          9.2250   19.0740   -3.3220 O.co2     1 B64132      0.0000 
      6 O7         11.3120   20.2010   -5.3400 O.2       1 B64132      0.0000 
      7 N8         12.8070   18.7190   -6.2890 N.am      1 B64132      0.0000 
      8 C9         12.9560   19.3520   -7.4870 C.2       1 B64132      0.0000 
      9 C10        13.9350   18.7420   -8.3870 C.2       1 B64132      0.0000 
     10 S11        13.9610   19.6590   -9.8820 S.3       1 B64132      0.0000 
     11 C12        12.6220   20.6750   -9.3110 C.2       1 B64132      0.0000 
     12 C13        12.1850   20.4130   -8.0030 C.2       1 B64132      0.0000 
     13 C14        14.8620   17.6370   -8.1270 C.2       1 B64132      0.0000 
     14 O15        15.7540   17.2440   -9.1790 O.3       1 B64132      0.0000 
     15 C16        16.6570   16.1790   -8.8820 C.3       1 B64132      0.0000 
     16 O17        14.9240   17.1030   -7.0200 O.2       1 B64132      0.0000 
     17 C18        12.1090   21.7390  -10.2140 C.2       1 B64132      0.0000 
     18 C19        11.1580   22.7110   -9.9010 C.2       1 B64132      0.0000 
     19 C20        10.9470   23.5530  -11.0240 C.2       1 B64132      0.0000 
     20 C21        11.7010   23.2960  -12.1910 C.2       1 B64132      0.0000 
     21 S22        12.6660   21.8290  -11.8870 S.3       1 B64132      0.0000 
     22 CS1        12.0340   19.1870   -5.2510 C.2       1 B64132      0.0000 
     23 H          12.0103   18.4279   -1.9395 H         1 B64132      0.0000 
     24 H          12.1842   17.2098   -4.2702 H         1 B64132      0.0000 
     25 H          13.3228   17.7972   -6.1407 H         1 B64132      0.0000 
     26 H          11.4968   20.8655   -7.5468 H         1 B64132      0.0000 
     27 H          10.7114   22.8061   -9.0660 H         1 B64132      0.0000 
     28 H          10.2833   24.3055  -10.9874 H         1 B64132      0.0000 
     29 H          11.8161   23.6477  -12.9865 H         1 B64132      0.0000 
     30 H          17.2430   15.9604   -9.6623 H         1 B64132      0.0000 
     31 H          17.2599   16.4057   -8.1171 H         1 B64132      0.0000 
     32 H          16.1729   15.3396   -8.6348 H         1 B64132      0.0000 
@<TRIPOS>BOND
     1    2    1 1    
     2    4    1 ar   
     3    5    1 ar   
     4    3    2 2    
     5   23    2 1    
     6   22    3 1    
     7   24    3 1    
     8   22    6 2    
     9    8    7 1    
    10   22    7 am   
    11   25    7 1    
    12    9    8 2    
    13   12    8 1    
    14   10    9 1    
    15   13    9 1    
    16   11   10 1    
    17   12   11 2    
    18   17   11 1    
    19   26   12 1    
    20   14   13 1    
    21   16   13 2    
    22   15   14 1    
    23   30   15 1    
    24   31   15 1    
    25   32   15 1    
    26   18   17 2    
    27   21   17 1    
    28   19   18 1    
    29   27   18 1    
    30   20   19 2    
    31   28   19 1    
    32   21   20 1    
    33   29   20 1    
@<TRIPOS>SUBSTRUCTURE
     1 B64132      1 GROUP   
@<TRIPOS>SET

