#    Name: 3fdn_MMH_1_INTS_M
#    Modification time : Tue Mar 25 03:51:20 2014

@<TRIPOS>MOLECULE
3fdn_MMH_1_INTS_M
   55     0     9     0     0
SMALL
NO_CHARGES


@<TRIPOS>ATOM
      1 CA         -5.0900  -35.1125   -1.6160 C.3       3 GLC5        0.0000 
      2 CA         -4.5100  -33.6370   -0.7240 C.3       9 GLL5        0.0000 
      3 CA         -5.6700  -36.5880   -2.5080 C.3       6 GLP5        0.0000 
      4 N          -5.7585  -34.6720    2.3845 N.am      2 SEC2        0.0000 
      5 N          -4.7230  -33.7300    1.6420 N.am      8 SEL2        0.0000 
      6 N          -6.7940  -35.6140    3.1270 N.am      5 SEP2        0.0000 
      7 CA         -5.3645  -27.2580    4.9610 C.3       3 GLC5        0.0000 
      8 CA         -5.8580  -29.0260    3.7790 C.3       9 GLL5        0.0000 
      9 CA         -4.8710  -25.4900    6.1430 C.3       6 GLP5        0.0000 
     10 CA         -3.0365  -29.6555    4.3290 C.3       3 GLC5        0.0000 
     11 CA         -5.0880  -30.1800    4.0090 C.3       9 GLL5        0.0000 
     12 CA         -0.9850  -29.1310    4.6490 C.3       6 GLP5        0.0000 
     13 CA         -6.6065  -31.5795    3.3320 C.3       3 GLC5        0.0000 
     14 CA         -8.1250  -32.9790    2.6550 C.3       6 GLP5        0.0000 
     15 CA         -6.1420  -31.6545    5.1170 C.3       3 GLC5        0.0000 
     16 CA         -7.1960  -33.1290    6.2250 C.3       6 GLP5        0.0000 
     17 CA         -3.6945  -28.5875    7.5430 C.3       3 GLC5        0.0000 
     18 CA         -4.4120  -30.6090    7.6810 C.3       9 GLL5        0.0000 
     19 CA         -2.9770  -26.5660    7.4050 C.3       6 GLP5        0.0000 
     20 CA         -3.0940  -29.5480    9.1135 C.3       3 GLC5        0.0000 
     21 CA         -1.7760  -28.4870   10.5460 C.3       6 GLP5        0.0000 
     22 CA         -4.1590  -27.7075    8.4290 C.3       3 GLC5        0.0000 
     23 CA         -5.3410  -28.8490    9.4530 C.3       9 GLL5        0.0000 
     24 CA         -3.5585  -28.6680    9.9995 C.3       3 GLC5        0.0000 
     25 CA         -6.5260  -29.6250   10.7805 C.3       3 GLC5        0.0000 
     26 CA         -7.7110  -30.4010   12.1080 C.3       6 GLP5        0.0000 
     27 CA         -5.7300  -27.4540   10.5370 C.3       3 GLC5        0.0000 
     28 CA         -6.1190  -26.0590   11.6210 C.3       6 GLP5        0.0000 
     29 CA         -6.3955  -30.5015    9.0115 C.3       3 GLC5        0.0000 
     30 CA         -7.4500  -32.1540    8.5700 C.3       6 GLP5        0.0000 
     31 CA         -4.3640  -33.6160    8.8935 C.3       3 GLC5        0.0000 
     32 CA         -3.6980  -31.8060    7.8630 C.3       9 GLL5        0.0000 
     33 CA         -5.0300  -35.4260    9.9240 C.3       6 GLP5        0.0000 
     34 O          -3.0955  -34.1135    7.4680 O.2       1 ALC1        0.0000 
     35 O          -3.2160  -32.7330    7.0010 O.2       7 ALL1        0.0000 
     36 O          -2.9750  -35.4940    7.9350 O.2       4 ALP1        0.0000 
     37 CA         -0.5165  -32.1975    4.4785 C.3       3 GLC5        0.0000 
     38 CA         -1.9110  -33.6160    3.8660 C.3       9 GLL5        0.0000 
     39 CA          0.8780  -30.7790    5.0910 C.3       6 GLP5        0.0000 
     40 CA         -1.4600  -30.8035    3.8505 C.3       3 GLC5        0.0000 
     41 CA         -1.9350  -32.4760    3.0520 C.3       9 GLL5        0.0000 
     42 CA         -1.0310  -30.6605    2.4685 C.3       3 GLC5        0.0000 
     43 CA         -1.5170  -32.5520    1.7150 C.3       9 GLL5        0.0000 
     44 CA         -0.5450  -28.7690    3.2220 C.3       6 GLP5        0.0000 
     45 CA         -4.5702  -28.6638    1.5208 C.3       3 GLC5        0.0000 
     46 CA         -5.3540  -30.8530    1.6630 C.3       9 GLL5        0.0000 
     47 CA         -3.4170  -27.0590    1.4850 C.3       6 GLP5        0.0000 
     48 CA         -6.8622  -31.6524    2.2666 C.3       3 GLC5        0.0000 
     49 CA         -4.5066  -28.2993    2.5271 C.3       3 GLC5        0.0000 
     50 CA         -6.3510  -28.7720    2.4800 C.3       9 GLL5        0.0000 
     51 CA         -2.2070  -30.4813    7.3910 C.3       3 GLC5        0.0000 
     52 CA         -0.3590  -29.7550    7.0100 C.3       6 GLP5        0.0000 
     53 CA         -5.7525  -31.6808    8.1710 C.3       3 GLC5        0.0000 
     54 CA         -3.0391  -35.2878    3.5409 C.3       3 GLC5        0.0000 
     55 CA         -4.6880  -36.0040    4.2880 C.3       6 GLP5        0.0000 
@<TRIPOS>BOND
@<TRIPOS>SUBSTRUCTURE
     1 ALC1       34 GROUP        1 X    ALC  0     ROOT ALC X 1
     2 SEC2        4 GROUP        1 X    SEC  0     **** SEC X 2
     3 GLC5        1 GROUP        1 X    GLC  0     **** GLC X 6
     4 ALP1       36 GROUP        1 Y    ALP  0     ROOT ALP Y 8
     5 SEP2        6 GROUP        1 Y    SEP  0     **** SEP Y 9
     6 GLP5        3 GROUP        1 Y    GLP  0     **** GLP Y 13
     7 ALL1       35 GROUP        1 Z    ALL  0     ROOT ALL Z 15
     8 SEL2        5 GROUP        1 Z    SEL  0     **** SEL Z 16
     9 GLL5        2 GROUP        1 Z    GLL  0     **** GLL Z 20
@<TRIPOS>SET

