#    Name: 3fdn_MMH_1_ligand
#    Modification time : Tue Mar 25 03:51:20 2014

@<TRIPOS>MOLECULE
3fdn_MMH_1_ligand
   52    54     1     0     0
SMALL
NO_CHARGES


@<TRIPOS>ATOM
      1 CBC        -4.5100  -33.6370   -0.7240 C.3       1 MMH1        0.0000 
      2 CBB        -4.7860  -33.0070    0.6470 C.2       1 MMH1        0.0000 
      3 OBD        -4.7230  -33.7300    1.6420 O.2       1 MMH1        0.0000 
      4 NBA        -5.0940  -31.6900    0.6170 N.am      1 MMH1        0.0000 
      5 CAY        -5.3540  -30.8530    1.6630 C.ar      1 MMH1        0.0000 
      6 CAZ        -4.8580  -31.0820    2.9500 C.ar      1 MMH1        0.0000 
      7 CAX        -6.0930  -29.6840    1.4500 C.ar      1 MMH1        0.0000 
      8 CAW        -6.3510  -28.7720    2.4800 C.ar      1 MMH1        0.0000 
      9 CAV        -5.8580  -29.0260    3.7790 C.ar      1 MMH1        0.0000 
     10 CAS        -5.0880  -30.1800    4.0090 C.ar      1 MMH1        0.0000 
     11 NAR        -4.6180  -30.5220    5.2280 N.am      1 MMH1        0.0000 
     12 CAG        -5.0020  -29.9860    6.3960 C.2       1 MMH1        0.0000 
     13 OAQ        -5.8310  -29.0880    6.4800 O.2       1 MMH1        0.0000 
     14 CAD        -4.4120  -30.6090    7.6810 C.2       1 MMH1        0.0000 
     15 CAE        -4.5950  -30.1460    8.9740 C.2       1 MMH1        0.0000 
     16 CAF        -5.3410  -28.8490    9.4530 C.3       1 MMH1        0.0000 
     17 NAA        -3.9820  -30.9970    9.8110 N.2       1 MMH1        0.0000 
     18 NAB        -3.4750  -31.9400    9.1770 N.pl3     1 MMH1        0.0000 
     19 CAC        -3.6980  -31.8060    7.8630 C.2       1 MMH1        0.0000 
     20 NAH        -3.2160  -32.7330    7.0010 N.pl3     1 MMH1        0.0000 
     21 NAI        -2.8380  -32.5500    5.8370 N.2       1 MMH1        0.0000 
     22 CAJ        -2.3380  -33.6020    5.1970 C.2       1 MMH1        0.0000 
     23 CAL        -1.9110  -33.6160    3.8660 C.ar      1 MMH1        0.0000 
     24 CAK        -1.9350  -32.4760    3.0520 C.ar      1 MMH1        0.0000 
     25 CAP        -1.5170  -32.5520    1.7150 C.ar      1 MMH1        0.0000 
     26 CAO        -1.0940  -33.7800    1.1910 C.ar      1 MMH1        0.0000 
     27 OAT        -0.6940  -33.8470   -0.1130 O.3       1 MMH1        0.0000 
     28 CAU        -0.1990  -35.1680   -0.4890 C.3       1 MMH1        0.0000 
     29 CAN        -1.0800  -34.9170    1.9930 C.ar      1 MMH1        0.0000 
     30 CAM        -1.4900  -34.8360    3.3230 C.ar      1 MMH1        0.0000 
     31 H          -5.1422  -31.2294   -0.3794 H         1 MMH1        0.0000 
     32 H          -4.3040  -31.9391    3.1363 H         1 MMH1        0.0000 
     33 H          -6.4615  -29.4868    0.4984 H         1 MMH1        0.0000 
     34 H          -6.8924  -27.9256    2.2990 H         1 MMH1        0.0000 
     35 H          -6.0592  -28.3796    4.5379 H         1 MMH1        0.0000 
     36 H          -3.8638  -31.2987    5.2616 H         1 MMH1        0.0000 
     37 H          -2.9604  -32.7183    9.5482 H         1 MMH1        0.0000 
     38 H          -3.1729  -33.7562    7.4280 H         1 MMH1        0.0000 
     39 H          -2.2427  -34.5351    5.7250 H         1 MMH1        0.0000 
     40 H          -2.2598  -31.5805    3.4349 H         1 MMH1        0.0000 
     41 H          -1.5215  -31.7158    1.1278 H         1 MMH1        0.0000 
     42 H          -0.7679  -35.8161    1.6064 H         1 MMH1        0.0000 
     43 H          -1.4841  -35.6800    3.9139 H         1 MMH1        0.0000 
     44 H          -3.5914  -34.0289   -0.7745 H         1 MMH1        0.0000 
     45 H          -5.1545  -34.3730   -0.9310 H         1 MMH1        0.0000 
     46 H          -4.5836  -32.9666   -1.4624 H         1 MMH1        0.0000 
     47 H          -5.3231  -28.7565   10.4486 H         1 MMH1        0.0000 
     48 H          -4.9271  -28.0212    9.0743 H         1 MMH1        0.0000 
     49 H          -6.3018  -28.8494    9.1759 H         1 MMH1        0.0000 
     50 H           0.0919  -35.1973   -1.4453 H         1 MMH1        0.0000 
     51 H           0.5873  -35.4415    0.0650 H         1 MMH1        0.0000 
     52 H          -0.8984  -35.8734   -0.3737 H         1 MMH1        0.0000 
@<TRIPOS>BOND
     1    2    1 1    
     2   44    1 1    
     3   45    1 1    
     4   46    1 1    
     5    3    2 2    
     6    4    2 am   
     7    5    4 1    
     8   31    4 1    
     9    6    5 ar   
    10    7    5 ar   
    11   10    6 ar   
    12   32    6 1    
    13    8    7 ar   
    14   33    7 1    
    15    9    8 ar   
    16   34    8 1    
    17   10    9 ar   
    18   35    9 1    
    19   11   10 1    
    20   12   11 am   
    21   36   11 1    
    22   13   12 2    
    23   14   12 1    
    24   15   14 1    
    25   19   14 2    
    26   16   15 1    
    27   17   15 2    
    28   47   16 1    
    29   48   16 1    
    30   49   16 1    
    31   18   17 1    
    32   19   18 1    
    33   37   18 1    
    34   20   19 1    
    35   21   20 1    
    36   38   20 1    
    37   22   21 2    
    38   23   22 1    
    39   39   22 1    
    40   24   23 ar   
    41   30   23 ar   
    42   25   24 ar   
    43   40   24 1    
    44   26   25 ar   
    45   41   25 1    
    46   27   26 1    
    47   29   26 ar   
    48   28   27 1    
    49   50   28 1    
    50   51   28 1    
    51   52   28 1    
    52   30   29 ar   
    53   42   29 1    
    54   43   30 1    
@<TRIPOS>SUBSTRUCTURE
     1 MMH1        1 GROUP   
@<TRIPOS>SET

