#    Name: 3w54_RNB_1_INTS_M
#    Modification time : Tue Mar 25 02:15:56 2014

@<TRIPOS>MOLECULE
3w54_RNB_1_INTS_M
   81     0     9     0     0
SMALL
NO_CHARGES


@<TRIPOS>ATOM
      1 CA         88.1655   41.1065   42.9625 C.3       3 GLC5        0.0000 
      2 CA         89.5270   39.5770   43.8400 C.3       9 GLL5        0.0000 
      3 CA         86.8040   42.6360   42.0850 C.3       6 GLP5        0.0000 
      4 CA         91.1735   38.6685   45.0575 C.3       3 GLC5        0.0000 
      5 CA         92.8200   37.7600   46.2750 C.3       6 GLP5        0.0000 
      6 CA         89.9495   40.2955   45.4840 C.3       3 GLC5        0.0000 
      7 CA         90.3720   41.0140   47.1280 C.3       6 GLP5        0.0000 
      8 CA         87.8180   39.5965   45.1860 C.3       3 GLC5        0.0000 
      9 CA         86.1090   39.6160   46.5320 C.3       6 GLP5        0.0000 
     10 CA         93.5435   41.3950   43.2460 C.3       3 GLC5        0.0000 
     11 CA         91.3620   41.1600   42.7740 C.3       9 GLL5        0.0000 
     12 CA         95.7250   41.6300   43.7180 C.3       6 GLP5        0.0000 
     13 CA         87.7675   37.1530   42.4740 C.3       3 GLC5        0.0000 
     14 CA         89.0470   38.2690   41.0800 C.3       9 GLL5        0.0000 
     15 CA         86.4880   36.0370   43.8680 C.3       6 GLP5        0.0000 
     16 CA         89.4290   38.9660   38.0150 C.3       3 GLC5        0.0000 
     17 CA         88.6720   38.0660   39.5950 C.3       9 GLL5        0.0000 
     18 CA         90.1860   39.8660   36.4350 C.3       6 GLP5        0.0000 
     19 CA         84.6830   36.8080   41.1530 C.3       3 GLC5        0.0000 
     20 CA         86.4130   36.7920   40.2760 C.3       9 GLL5        0.0000 
     21 CA         82.9530   36.8240   42.0300 C.3       6 GLP5        0.0000 
     22 CA         85.7105   37.3325   38.5880 C.3       3 GLC5        0.0000 
     23 CA         85.0080   37.8730   36.9000 C.3       6 GLP5        0.0000 
     24 CA         86.4505   36.4145   42.0720 C.3       3 GLC5        0.0000 
     25 CA         84.8215   35.4005   39.8225 C.3       3 GLC5        0.0000 
     26 CA         83.2300   34.0090   39.3690 C.3       6 GLP5        0.0000 
     27 CA         88.7455   31.0900   37.0760 C.3       3 GLC5        0.0000 
     28 CA         89.2520   32.5050   38.6400 C.3       9 GLL5        0.0000 
     29 CA         88.2390   29.6750   35.5120 C.3       6 GLP5        0.0000 
     30 N          90.0425   32.8815   36.2065 N.am      2 SEC2        0.0000 
     31 N          89.2210   32.5470   37.2870 N.am      8 SEL2        0.0000 
     32 N          90.8640   33.2160   35.1260 N.am      5 SEP2        0.0000 
     33 N          89.1600   33.6305   36.3285 N.am      2 SEC2        0.0000 
     34 N          89.0990   34.7140   35.3700 N.am      5 SEP2        0.0000 
     35 O          88.4485   31.7550   36.4975 O.2       1 ALC1        0.0000 
     36 O          89.2210   32.5470   37.2870 O.2       7 ALL1        0.0000 
     37 O          87.6760   30.9630   35.7080 O.2       4 ALP1        0.0000 
     38 N          91.0585   32.0750   36.2630 N.am      2 SEC2        0.0000 
     39 N          91.2530   30.9340   37.4000 N.am      8 SEL2        0.0000 
     40 CA         92.1965   32.3335   40.8065 C.3       3 GLC5        0.0000 
     41 CA         91.0190   30.6290   41.2750 C.3       9 GLL5        0.0000 
     42 CA         93.3740   34.0380   40.3380 C.3       6 GLP5        0.0000 
     43 CA         91.0580   28.6165   40.4565 C.3       3 GLC5        0.0000 
     44 CA         91.0970   26.6040   39.6380 C.3       6 GLP5        0.0000 
     45 CA         87.5580   33.1890   44.1195 C.3       3 GLC5        0.0000 
     46 CA         89.2460   32.5380   43.2820 C.3       9 GLL5        0.0000 
     47 CA         85.8700   33.8400   44.9570 C.3       6 GLP5        0.0000 
     48 O          86.5160   33.0220   41.9290 O.2       1 ALC1        0.0000 
     49 O          87.7680   34.1540   41.4670 O.2       7 ALL1        0.0000 
     50 O          85.2640   31.8900   42.3910 O.2       4 ALP1        0.0000 
     51 CA         88.3635   40.5200   41.4030 C.3       3 GLC5        0.0000 
     52 CA         90.0870   39.3960   41.2310 C.3       9 GLL5        0.0000 
     53 CA         86.5200   41.3220   40.8810 C.3       6 GLP5        0.0000 
     54 CA         91.1722   41.3845   44.5252 C.3       3 GLC5        0.0000 
     55 CA         90.3270   40.0400   42.6190 C.3       9 GLL5        0.0000 
     56 CA         91.5000   42.1690   46.3540 C.3       6 GLP5        0.0000 
     57 CA         87.6898   39.7448   40.6093 C.3       3 GLC5        0.0000 
     58 CA         87.0892   38.2588   38.2682 C.3       3 GLC5        0.0000 
     59 CA         85.9470   39.0780   36.9730 C.3       6 GLP5        0.0000 
     60 CA         90.8227   37.3961   40.0781 C.3       3 GLC5        0.0000 
     61 CA         92.5260   36.3430   39.7810 C.3       6 GLP5        0.0000 
     62 CA         86.8298   35.8317   37.4705 C.3       3 GLC5        0.0000 
     63 CA         88.3070   35.6440   38.7300 C.3       9 GLL5        0.0000 
     64 CA         85.7090   36.6900   36.2300 C.3       6 GLP5        0.0000 
     65 CA         89.9227   34.6808   38.5340 C.3       3 GLC5        0.0000 
     66 CA         91.8950   34.3880   38.3570 C.3       6 GLP5        0.0000 
     67 CA         90.3697   33.6647   38.6743 C.3       3 GLC5        0.0000 
     68 CA         88.4370   33.3780   39.3430 C.3       9 GLL5        0.0000 
     69 CA         91.0113   32.9800   39.1642 C.3       3 GLC5        0.0000 
     70 CA         90.1050   31.5890   39.2730 C.3       9 GLL5        0.0000 
     71 CA         88.2049   30.8076   39.5101 C.3       3 GLC5        0.0000 
     72 CA         86.9350   29.3500   39.8880 C.3       6 GLP5        0.0000 
     73 CA         89.0662   30.1070   41.1163 C.3       3 GLC5        0.0000 
     74 CA         90.1500   31.5550   40.6700 C.3       9 GLL5        0.0000 
     75 CA         87.5480   29.1220   41.2600 C.3       6 GLP5        0.0000 
     76 CA         90.4123   33.6332   39.7145 C.3       3 GLC5        0.0000 
     77 CA         89.3380   32.4380   41.4190 C.3       9 GLL5        0.0000 
     78 CA         86.3011   33.2719   39.5471 C.3       3 GLC5        0.0000 
     79 CA         88.5210   33.3190   40.7250 C.3       9 GLL5        0.0000 
     80 CA         84.3340   32.9640   39.2230 C.3       6 GLP5        0.0000 
     81 CA         88.2272   31.0128   41.3989 C.3       3 GLC5        0.0000 
@<TRIPOS>BOND
@<TRIPOS>SUBSTRUCTURE
     1 ALC1       35 GROUP        1 X    ALC  0     ROOT ALC X 1
     2 SEC2       30 GROUP        1 X    SEC  0     **** SEC X 2
     3 GLC5        1 GROUP        1 X    GLC  0     **** GLC X 6
     4 ALP1       37 GROUP        1 Y    ALP  0     ROOT ALP Y 8
     5 SEP2       32 GROUP        1 Y    SEP  0     **** SEP Y 9
     6 GLP5        3 GROUP        1 Y    GLP  0     **** GLP Y 13
     7 ALL1       36 GROUP        1 Z    ALL  0     ROOT ALL Z 15
     8 SEL2       31 GROUP        1 Z    SEL  0     **** SEL Z 16
     9 GLL5        2 GROUP        1 Z    GLL  0     **** GLL Z 20
@<TRIPOS>SET

