#    Name: 3w54_RNB_1_ligand
#    Modification time : Tue Mar 25 02:15:56 2014

@<TRIPOS>MOLECULE
3w54_RNB_1_ligand
   45    45     1     0     0
SMALL
NO_CHARGES


@<TRIPOS>ATOM
      1 CAA        89.5270   39.5770   43.8400 C.3       1 RNB504      0.0000 
      2 CAO        90.3270   40.0400   42.6190 C.2       1 RNB504      0.0000 
      3 CAB        91.3620   41.1600   42.7740 C.3       1 RNB504      0.0000 
      4 CAJ        90.0870   39.3960   41.2310 C.2       1 RNB504      0.0000 
      5 CAL        89.0470   38.2690   41.0800 C.3       1 RNB504      0.0000 
      6 CAN        88.6720   38.0660   39.5950 C.3       1 RNB504      0.0000 
      7 CAP        87.7910   36.8130   39.5320 C.2       1 RNB504      0.0000 
      8 CAC        86.4130   36.7920   40.2760 C.3       1 RNB504      0.0000 
      9 CAK        88.3070   35.6440   38.7300 C.2       1 RNB504      0.0000 
     10 CAM        87.5940   34.3030   38.6920 C.3       1 RNB504      0.0000 
     11 CAV        88.4370   33.3780   39.3430 C.ar      1 RNB504      0.0000 
     12 CAS        89.2520   32.5050   38.6400 C.ar      1 RNB504      0.0000 
     13 OAG        89.2210   32.5470   37.2870 O.3       1 RNB504      0.0000 
     14 CAU        90.1050   31.5890   39.2730 C.ar      1 RNB504      0.0000 
     15 CAI        90.8960   30.6970   38.5350 C.2       1 RNB504      0.0000 
     16 OAE        91.2530   30.9340   37.4000 O.2       1 RNB504      0.0000 
     17 CAQ        90.1500   31.5550   40.6700 C.ar      1 RNB504      0.0000 
     18 CAD        91.0190   30.6290   41.2750 C.3       1 RNB504      0.0000 
     19 CAT        89.3380   32.4380   41.4190 C.ar      1 RNB504      0.0000 
     20 CL         89.2460   32.5380   43.2820 Cl        1 RNB504      0.0000 
     21 CAR        88.5210   33.3190   40.7250 C.ar      1 RNB504      0.0000 
     22 OAF        87.7680   34.1540   41.4670 O.3       1 RNB504      0.0000 
     23 H          90.5939   39.7050   40.4575 H         1 RNB504      0.0000 
     24 H          88.1541   38.5295   41.6387 H         1 RNB504      0.0000 
     25 H          89.4616   37.3454   41.4704 H         1 RNB504      0.0000 
     26 H          89.5624   37.9110   39.0241 H         1 RNB504      0.0000 
     27 H          88.1194   38.9141   39.2514 H         1 RNB504      0.0000 
     28 H          89.1546   35.7521   38.1990 H         1 RNB504      0.0000 
     29 H          87.4214   34.0444   37.6506 H         1 RNB504      0.0000 
     30 H          86.6376   34.4174   39.1954 H         1 RNB504      0.0000 
     31 H          91.1512   29.7973   39.0641 H         1 RNB504      0.0000 
     32 H          90.1227   39.2318   44.5652 H         1 RNB504      0.0000 
     33 H          88.9866   40.3206   44.2337 H         1 RNB504      0.0000 
     34 H          88.8896   38.8418   43.6094 H         1 RNB504      0.0000 
     35 H          92.0796   40.9149   43.4259 H         1 RNB504      0.0000 
     36 H          91.8133   41.3712   41.9070 H         1 RNB504      0.0000 
     37 H          90.9454   42.0079   43.1018 H         1 RNB504      0.0000 
     38 H          86.5204   36.9298   41.2606 H         1 RNB504      0.0000 
     39 H          85.8010   37.5101   39.9446 H         1 RNB504      0.0000 
     40 H          85.9373   35.9212   40.1521 H         1 RNB504      0.0000 
     41 H          91.9703   30.7830   41.0078 H         1 RNB504      0.0000 
     42 H          90.9825   30.6826   42.2729 H         1 RNB504      0.0000 
     43 H          90.7925   29.6880   41.0235 H         1 RNB504      0.0000 
     44 H          88.6468   31.7741   37.0173 H         1 RNB504      0.0000 
     45 H          87.0044   33.5952   41.7906 H         1 RNB504      0.0000 
@<TRIPOS>BOND
     1    2    1 1    
     2   32    1 1    
     3   33    1 1    
     4   34    1 1    
     5    3    2 1    
     6    4    2 2    
     7   35    3 1    
     8   36    3 1    
     9   37    3 1    
    10    5    4 1    
    11   23    4 1    
    12    6    5 1    
    13   24    5 1    
    14   25    5 1    
    15    7    6 1    
    16   26    6 1    
    17   27    6 1    
    18    8    7 1    
    19    9    7 2    
    20   38    8 1    
    21   39    8 1    
    22   40    8 1    
    23   10    9 1    
    24   28    9 1    
    25   11   10 1    
    26   29   10 1    
    27   30   10 1    
    28   12   11 ar   
    29   21   11 ar   
    30   13   12 1    
    31   14   12 ar   
    32   44   13 1    
    33   15   14 1    
    34   17   14 ar   
    35   16   15 2    
    36   31   15 1    
    37   18   17 1    
    38   19   17 ar   
    39   41   18 1    
    40   42   18 1    
    41   43   18 1    
    42   20   19 1    
    43   21   19 ar   
    44   22   21 1    
    45   45   22 1    
@<TRIPOS>SUBSTRUCTURE
     1 RNB504      1 GROUP   
@<TRIPOS>SET

