#    Name: 4hdg_GTP_2_INTS_M
#    Modification time : Tue Mar 25 00:52:19 2014

@<TRIPOS>MOLECULE
4hdg_GTP_2_INTS_M
   58     0    12     0     0
SMALL
NO_CHARGES


@<TRIPOS>ATOM
      1 N         -30.6955   27.7810  -22.1050 N.am      2 SEC2        0.0000 
      2 N         -30.9390   26.7980  -22.6720 N.am     10 SEL2        0.0000 
      3 N         -30.4520   28.7640  -21.5380 N.am      6 SEP2        0.0000 
      4 NZ        -31.8815   23.4480  -23.0705 N.4       3 LYC4        0.0000 
      5 NZ        -30.1190   24.3800  -22.9980 N.4      11 LYL4        0.0000 
      6 NZ        -33.6440   22.5160  -23.1430 N.4       7 LYP4        0.0000 
      7 NZ        -29.6100   23.2255  -23.4460 N.4       3 LYC4        0.0000 
      8 NZ        -28.0040   22.4280  -23.2780 N.4       7 LYP4        0.0000 
      9 N         -29.0945   23.9375  -22.7465 N.am      2 SEC2        0.0000 
     10 N         -30.1190   24.3800  -22.9980 N.am     10 SEL2        0.0000 
     11 N         -28.0700   23.4950  -22.4950 N.am      6 SEP2        0.0000 
     12 N         -29.6100   23.2255  -23.4460 N.am      2 SEC2        0.0000 
     13 N         -29.1010   22.0710  -23.8940 N.am      6 SEP2        0.0000 
     14 N         -33.1080   23.7360  -23.1390 N.am      2 SEC2        0.0000 
     15 N         -32.5720   24.9560  -23.1350 N.am     10 SEL2        0.0000 
     16 N         -33.6440   22.5160  -23.1430 N.am      6 SEP2        0.0000 
     17 NZ        -32.6630   26.2080  -25.9580 N.4       3 LYC4        0.0000 
     18 NZ        -33.8010   26.0950  -24.9540 N.4      11 LYL4        0.0000 
     19 NZ        -31.5250   26.3210  -26.9620 N.4       7 LYP4        0.0000 
     20 N         -34.5560   25.2145  -25.9860 N.am      2 SEC2        0.0000 
     21 N         -33.8010   26.0950  -24.9540 N.am     10 SEL2        0.0000 
     22 N         -35.3110   24.3340  -27.0180 N.am      6 SEP2        0.0000 
     23 N         -33.1910   28.5605  -22.6545 N.am      2 SEC2        0.0000 
     24 N         -33.4360   27.3210  -22.7410 N.am     10 SEL2        0.0000 
     25 N         -32.9460   29.8000  -22.5680 N.am      6 SEP2        0.0000 
     26 N         -34.3920   23.9890  -23.0760 N.am      2 SEC2        0.0000 
     27 N         -35.1400   25.4620  -23.0090 N.am     10 SEL2        0.0000 
     28 NZ        -35.0055   23.2005  -22.4265 N.4       3 LYC4        0.0000 
     29 NZ        -36.3670   23.8850  -21.7100 N.4      11 LYL4        0.0000 
     30 NZ        -37.4910   23.3180  -21.6400 N.4       3 LYC4        0.0000 
     31 NZ        -38.8160   22.2590  -22.7780 N.4       7 LYP4        0.0000 
     32 N         -35.0055   23.2005  -22.4265 N.am      2 SEC2        0.0000 
     33 N         -36.3670   23.8850  -21.7100 N.am     10 SEL2        0.0000 
     34 N         -37.4910   23.3180  -21.6400 N.am      2 SEC2        0.0000 
     35 N         -38.6150   22.7510  -21.5700 N.am      6 SEP2        0.0000 
     36 N         -37.1000   23.0650  -22.6900 N.am      2 SEC2        0.0000 
     37 N         -37.8330   22.2450  -23.6700 N.am      6 SEP2        0.0000 
     38 CA        -32.7930   26.2560  -18.9990 C.3       4 GLC5        0.0000 
     39 CA        -33.9190   24.9520  -19.2930 C.3      12 GLL5        0.0000 
     40 CA        -31.6670   27.5600  -18.7050 C.3       8 GLP5        0.0000 
     41 CA        -40.9665   23.1270  -20.4470 C.3       4 GLC5        0.0000 
     42 CA        -40.7740   24.5260  -18.6970 C.3      12 GLL5        0.0000 
     43 CA        -41.1590   21.7280  -22.1970 C.3       8 GLP5        0.0000 
     44 N         -44.0045   25.8850  -18.5190 N.am      2 SEC2        0.0000 
     45 N         -42.9920   24.8220  -18.9740 N.am     10 SEL2        0.0000 
     46 N         -45.0170   26.9480  -18.0640 N.am      6 SEP2        0.0000 
     47 O         -43.4980   22.3760  -17.8670 O.2       1 ALC1        0.0000 
     48 O         -42.3990   23.0830  -17.6490 O.2       9 ALL1        0.0000 
     49 O         -44.5970   21.6690  -18.0850 O.2       5 ALP1        0.0000 
     50 O         -43.3835   21.4465  -16.1435 O.2       1 ALC1        0.0000 
     51 O         -41.6590   21.2720  -16.3190 O.2       9 ALL1        0.0000 
     52 O         -45.1080   21.6210  -15.9680 O.2       5 ALP1        0.0000 
     53 O         -43.1280   21.4705  -17.2020 O.2       1 ALC1        0.0000 
     54 O         -40.0880   20.6345  -15.9455 O.2       1 ALC1        0.0000 
     55 O         -38.5170   19.9970  -15.5720 O.2       5 ALP1        0.0000 
     56 CA        -35.9835   20.4793  -18.7750 C.3       4 GLC5        0.0000 
     57 CA        -36.7270   22.4990  -18.7460 C.3      12 GLL5        0.0000 
     58 CA        -36.0150   18.3990  -18.8110 C.3       8 GLP5        0.0000 
@<TRIPOS>BOND
@<TRIPOS>SUBSTRUCTURE
     1 ALC1       47 GROUP        1 X    ALC  0     ROOT ALC X 1
     2 SEC2        1 GROUP        1 X    SEC  0     **** SEC X 2
     3 LYC4        4 GROUP        1 X    LYC  0     **** LYC X 4
     4 GLC5       38 GROUP        1 X    GLC  0     **** GLC X 6
     5 ALP1       49 GROUP        1 Y    ALP  0     ROOT ALP Y 8
     6 SEP2        3 GROUP        1 Y    SEP  0     **** SEP Y 9
     7 LYP4        6 GROUP        1 Y    LYP  0     **** LYP Y 11
     8 GLP5       40 GROUP        1 Y    GLP  0     **** GLP Y 13
     9 ALL1       48 GROUP        1 Z    ALL  0     ROOT ALL Z 15
    10 SEL2        2 GROUP        1 Z    SEL  0     **** SEL Z 16
    11 LYL4        5 GROUP        1 Z    LYL  0     **** LYL Z 18
    12 GLL5       39 GROUP        1 Z    GLL  0     **** GLL Z 20
@<TRIPOS>SET

