#    Name: 4hdg_GTP_2_ligand
#    Modification time : Tue Mar 25 00:52:19 2014

@<TRIPOS>MOLECULE
4hdg_GTP_2_ligand
   44    46     1     0     0
SMALL
NO_CHARGES


@<TRIPOS>ATOM
      1 PG        -31.2540   25.3730  -22.4300 P.3       1 GTP1001     0.0000 
      2 O1G       -30.9390   26.7980  -22.6720 O.co2     1 GTP1001     0.0000 
      3 O2G       -30.1190   24.3800  -22.9980 O.co2     1 GTP1001     0.0000 
      4 O3G       -31.3700   24.9780  -20.8320 O.co2     1 GTP1001     0.0000 
      5 O3B       -32.5720   24.9560  -23.1350 O.3       1 GTP1001     0.0000 
      6 PB        -33.6800   26.0730  -23.4610 P.3       1 GTP1001     0.0000 
      7 O1B       -33.8010   26.0950  -24.9540 O.co2     1 GTP1001     0.0000 
      8 O2B       -33.4360   27.3210  -22.7410 O.co2     1 GTP1001     0.0000 
      9 O3A       -35.1400   25.4620  -23.0090 O.3       1 GTP1001     0.0000 
     10 PA        -35.6110   25.1580  -21.5180 P.3       1 GTP1001     0.0000 
     11 O1A       -36.3670   23.8850  -21.7100 O.co2     1 GTP1001     0.0000 
     12 O2A       -36.2710   26.3230  -20.8460 O.co2     1 GTP1001     0.0000 
     13 O5'       -34.1600   24.8220  -20.7450 O.3       1 GTP1001     0.0000 
     14 C5'       -33.9190   24.9520  -19.2930 C.3       1 GTP1001     0.0000 
     15 C4'       -34.8820   24.1160  -18.3620 C.3       1 GTP1001     0.0000 
     16 O4'       -36.1600   24.8290  -18.3380 O.3       1 GTP1001     0.0000 
     17 C3'       -35.1770   22.6200  -18.7320 C.3       1 GTP1001     0.0000 
     18 O3'       -34.5700   21.7050  -17.7800 O.3       1 GTP1001     0.0000 
     19 C2'       -36.7270   22.4990  -18.7460 C.3       1 GTP1001     0.0000 
     20 O2'       -37.2200   21.3000  -18.0490 O.3       1 GTP1001     0.0000 
     21 C1'       -37.2030   23.8180  -18.0640 C.3       1 GTP1001     0.0000 
     22 N9        -38.6050   24.3200  -18.4810 N.pl3     1 GTP1001     0.0000 
     23 C8        -38.8850   25.3820  -19.2720 C.2       1 GTP1001     0.0000 
     24 N7        -40.2100   25.5100  -19.4090 N.2       1 GTP1001     0.0000 
     25 C5        -40.7740   24.5260  -18.6970 C.2       1 GTP1001     0.0000 
     26 C6        -42.0940   24.1730  -18.4590 C.2       1 GTP1001     0.0000 
     27 O6        -42.9920   24.8220  -18.9740 O.2       1 GTP1001     0.0000 
     28 N1        -42.3990   23.0830  -17.6490 N.am      1 GTP1001     0.0000 
     29 C2        -41.3540   22.3270  -17.0920 C.2       1 GTP1001     0.0000 
     30 N2        -41.6590   21.2720  -16.3190 N.pl3     1 GTP1001     0.0000 
     31 N3        -40.0710   22.6940  -17.3220 N.2       1 GTP1001     0.0000 
     32 C4        -39.7660   23.7650  -18.1010 C.2       1 GTP1001     0.0000 
     33 H         -34.0074   26.0123  -18.9741 H         1 GTP1001     0.0000 
     34 H         -32.8824   24.6448  -19.0384 H         1 GTP1001     0.0000 
     35 H         -34.4651   24.1405  -17.3517 H         1 GTP1001     0.0000 
     36 H         -34.8307   22.4689  -19.7327 H         1 GTP1001     0.0000 
     37 H         -37.0425   22.5425  -19.7687 H         1 GTP1001     0.0000 
     38 H         -37.2109   23.6267  -16.9814 H         1 GTP1001     0.0000 
     39 H         -38.2138   25.9631  -19.6782 H         1 GTP1001     0.0000 
     40 H         -43.3694   22.8308  -17.4582 H         1 GTP1001     0.0000 
     41 H         -42.6328   21.0708  -16.2134 H         1 GTP1001     0.0000 
     42 H         -40.8850   20.7819  -15.9180 H         1 GTP1001     0.0000 
     43 H         -35.3117   21.0973  -17.4963 H         1 GTP1001     0.0000 
     44 H         -38.1837   21.4887  -17.8598 H         1 GTP1001     0.0000 
@<TRIPOS>BOND
     1    2    1 ar   
     2    3    1 ar   
     3    4    1 ar   
     4    5    1 1    
     5    6    5 1    
     6    7    6 ar   
     7    8    6 ar   
     8    9    6 1    
     9   10    9 1    
    10   11   10 ar   
    11   12   10 ar   
    12   13   10 1    
    13   14   13 1    
    14   15   14 1    
    15   33   14 1    
    16   34   14 1    
    17   16   15 1    
    18   17   15 1    
    19   35   15 1    
    20   21   16 1    
    21   18   17 1    
    22   19   17 1    
    23   36   17 1    
    24   43   18 1    
    25   20   19 1    
    26   21   19 1    
    27   37   19 1    
    28   44   20 1    
    29   22   21 1    
    30   38   21 1    
    31   23   22 1    
    32   32   22 1    
    33   24   23 2    
    34   39   23 1    
    35   25   24 1    
    36   26   25 1    
    37   32   25 2    
    38   27   26 2    
    39   28   26 am   
    40   29   28 1    
    41   40   28 1    
    42   30   29 1    
    43   31   29 2    
    44   41   30 1    
    45   42   30 1    
    46   32   31 1    
@<TRIPOS>SUBSTRUCTURE
     1 GTP1001     1 GROUP   
@<TRIPOS>SET

