#    Name: 3qqp_S05_4_INTS_M
#    Modification time : Mon Apr  7 19:48:14 2014

@<TRIPOS>MOLECULE
3qqp_S05_4_INTS_M
   60     0     3     0     0
SMALL
NO_CHARGES


@<TRIPOS>ATOM
      1 CA          6.4375   32.7645    2.7325 C.3       1 GLC5        0.0000 
      2 CA          7.1110   32.7640    0.7000 C.3       3 GLL5        0.0000 
      3 CA          5.7640   32.7650    4.7650 C.3       2 GLP5        0.0000 
      4 CA          8.4615   32.0645   -0.6050 C.3       1 GLC5        0.0000 
      5 CA          9.8120   31.3650   -1.9100 C.3       2 GLP5        0.0000 
      6 CA          8.6410   31.5170    1.5975 C.3       1 GLC5        0.0000 
      7 CA         10.1710   30.2700    2.4950 C.3       2 GLP5        0.0000 
      8 CA          5.4855   31.4745   -1.2805 C.3       1 GLC5        0.0000 
      9 CA          5.8400   32.9510   -0.1590 C.3       3 GLL5        0.0000 
     10 CA          5.1310   29.9980   -2.4020 C.3       2 GLP5        0.0000 
     11 CA          7.2475   32.1845   -1.5395 C.3       1 GLC5        0.0000 
     12 CA          8.6550   31.4180   -2.9200 C.3       2 GLP5        0.0000 
     13 CA          3.4740   34.6515   -1.0050 C.3       1 GLC5        0.0000 
     14 CA          5.0800   34.2650    0.1090 C.3       3 GLL5        0.0000 
     15 CA          1.8680   35.0380   -2.1190 C.3       2 GLP5        0.0000 
     16 CA          3.6625   35.4220    1.1065 C.3       1 GLC5        0.0000 
     17 CA          2.2450   36.5790    2.1040 C.3       2 GLP5        0.0000 
     18 CA         10.7050   35.0620    4.1105 C.3       1 GLC5        0.0000 
     19 CA          8.9430   34.9320    3.2690 C.3       3 GLL5        0.0000 
     20 CA         12.4670   35.1920    4.9520 C.3       2 GLP5        0.0000 
     21 CA         10.4490   33.3365    3.3255 C.3       1 GLC5        0.0000 
     22 CA          8.5040   33.8460    2.5080 C.3       3 GLL5        0.0000 
     23 CA         12.3940   32.8270    4.1430 C.3       2 GLP5        0.0000 
     24 CA          9.3375   32.0580    2.5015 C.3       1 GLC5        0.0000 
     25 CA          4.8400   38.8235   -0.5335 C.3       1 GLC5        0.0000 
     26 CA          6.6840   38.7170   -0.3750 C.3       3 GLL5        0.0000 
     27 CA          2.9960   38.9300   -0.6920 C.3       2 GLP5        0.0000 
     28 CA          5.2890   40.1315   -1.9260 C.3       1 GLC5        0.0000 
     29 CA          7.1140   39.8410   -1.3410 C.3       3 GLL5        0.0000 
     30 CA          3.4640   40.4220   -2.5110 C.3       2 GLP5        0.0000 
     31 CA         10.7400   37.3465   -0.5780 C.3       1 GLC5        0.0000 
     32 CA          9.1630   38.2770   -1.6630 C.3       3 GLL5        0.0000 
     33 CA         12.3170   36.4160    0.5070 C.3       2 GLP5        0.0000 
     34 CA          9.5050   35.3715   -1.6735 C.3       1 GLC5        0.0000 
     35 CA          8.2720   37.0150   -1.5590 C.3       3 GLL5        0.0000 
     36 CA         10.7380   33.7280   -1.7880 C.3       2 GLP5        0.0000 
     37 CA          5.3090   38.6460   -5.4500 C.3       1 GLC5        0.0000 
     38 CA          7.1810   38.8720   -4.2660 C.3       3 GLL5        0.0000 
     39 CA          3.4370   38.4200   -6.6340 C.3       2 GLP5        0.0000 
     40 CA          3.8425   32.4305    0.5860 C.3       1 GLC5        0.0000 
     41 CA          2.2250   31.2530    1.1970 C.3       2 GLP5        0.0000 
     42 CA          5.5295   34.1075   -2.1545 C.3       1 GLC5        0.0000 
     43 CA          5.5990   34.6070   -4.2840 C.3       2 GLP5        0.0000 
     44 CA          9.0212   38.1125    2.5248 C.3       1 GLC5        0.0000 
     45 CA          7.4660   36.3810    2.0360 C.3       3 GLL5        0.0000 
     46 CA         10.0970   39.9330    2.5160 C.3       2 GLP5        0.0000 
     47 CA          6.6258   37.6725    3.4152 C.3       1 GLC5        0.0000 
     48 CA          8.4250   36.2030    3.0310 C.3       3 GLL5        0.0000 
     49 CA          5.3060   39.0530    4.2970 C.3       2 GLP5        0.0000 
     50 CA          6.7515   39.9515    0.9865 C.3       1 GLC5        0.0000 
     51 CA          6.6040   40.6240    2.8310 C.3       2 GLP5        0.0000 
     52 CA         10.7553   39.7447   -1.7075 C.3       1 GLC5        0.0000 
     53 CA          8.4160   39.5580   -2.1230 C.3       3 GLL5        0.0000 
     54 CA         12.7210   40.5720   -1.5220 C.3       2 GLP5        0.0000 
     55 CA          9.8812   37.2420   -3.3100 C.3       1 GLC5        0.0000 
     56 CA         11.0450   36.8380   -5.0090 C.3       2 GLP5        0.0000 
     57 CA          6.4490   40.5177   -4.9612 C.3       1 GLC5        0.0000 
     58 CA          8.1690   39.5210   -3.6430 C.3       3 GLL5        0.0000 
     59 CA          5.2230   41.8390   -5.9680 C.3       2 GLP5        0.0000 
     60 CA          9.3600   38.0173   -4.4817 C.3       1 GLC5        0.0000 
@<TRIPOS>BOND
@<TRIPOS>SUBSTRUCTURE
     1 GLC5        1 GROUP        1 X    GLC  0     ROOT GLC X 6
     2 GLP5        3 GROUP        1 Y    GLP  0     ROOT GLP Y 13
     3 GLL5        2 GROUP        1 Z    GLL  0     ROOT GLL Z 20
@<TRIPOS>SET

