#    Name: 3qqp_S05_4_ligand
#    Modification time : Mon Apr  7 19:48:15 2014

@<TRIPOS>MOLECULE
3qqp_S05_4_ligand
   45    48     1     0     0
SMALL
NO_CHARGES


@<TRIPOS>ATOM
      1 C1          7.5500   34.0210    1.4920 C.ar      1 S054        0.0000 
      2 C2          7.1110   32.7640    0.7000 C.3       1 S054        0.0000 
      3 C3          5.8400   32.9510   -0.1590 C.3       1 S054        0.0000 
      4 C4          5.0800   34.2650    0.1090 C.3       1 S054        0.0000 
      5 N5          6.0350   35.4260    0.2180 N.am      1 S054        0.0000 
      6 C6          7.0330   35.3040    1.2490 C.ar      1 S054        0.0000 
      7 C13         7.4660   36.3810    2.0360 C.ar      1 S054        0.0000 
      8 C14         8.4250   36.2030    3.0310 C.ar      1 S054        0.0000 
      9 C15         8.9430   34.9320    3.2690 C.ar      1 S054        0.0000 
     10 C16         8.5040   33.8460    2.5080 C.ar      1 S054        0.0000 
     11 C21         6.0260   36.3650   -0.7750 C.2       1 S054        0.0000 
     12 O22         5.1170   36.3330   -1.6160 O.2       1 S054        0.0000 
     13 N23         6.9640   37.3330   -0.8980 N.am      1 S054        0.0000 
     14 C24         6.6840   38.7170   -0.3750 C.3       1 S054        0.0000 
     15 C25         7.1140   39.8410   -1.3410 C.3       1 S054        0.0000 
     16 C26         8.4160   39.5580   -2.1230 C.3       1 S054        0.0000 
     17 C27         9.1630   38.2770   -1.6630 C.3       1 S054        0.0000 
     18 C28         8.2720   37.0150   -1.5590 C.3       1 S054        0.0000 
     19 C38         8.1690   39.5210   -3.6430 C.2       1 S054        0.0000 
     20 N39         8.9380   40.1310   -4.5400 N.pl3     1 S054        0.0000 
     21 C40         8.4130   39.8560   -5.7370 C.2       1 S054        0.0000 
     22 N41         7.3360   39.0850   -5.5720 N.2       1 S054        0.0000 
     23 C42         7.1810   38.8720   -4.2660 C.2       1 S054        0.0000 
     24 H           6.9391   31.9415    1.4127 H         1 S054        0.0000 
     25 H           7.9400   32.4547    0.0435 H         1 S054        0.0000 
     26 H           5.1618   32.1041    0.0257 H         1 S054        0.0000 
     27 H           6.1242   32.9151   -1.2217 H         1 S054        0.0000 
     28 H           4.5169   34.1580    1.0360 H         1 S054        0.0000 
     29 H           4.3798   34.4346   -0.7089 H         1 S054        0.0000 
     30 H           7.0655   37.3190    1.8725 H         1 S054        0.0000 
     31 H           8.7474   37.0029    3.5847 H         1 S054        0.0000 
     32 H           9.6470   34.7917    4.0028 H         1 S054        0.0000 
     33 H           8.8818   32.9056    2.6912 H         1 S054        0.0000 
     34 H           7.2082   38.8658    0.5824 H         1 S054        0.0000 
     35 H           5.6065   38.8278   -0.1747 H         1 S054        0.0000 
     36 H           7.2430   40.7724   -0.7658 H         1 S054        0.0000 
     37 H           6.3001   40.0184   -2.0629 H         1 S054        0.0000 
     38 H           9.1035   40.4121   -1.9375 H         1 S054        0.0000 
     39 H           9.6192   38.4703   -0.6807 H         1 S054        0.0000 
     40 H           9.9816   38.0752   -2.3697 H         1 S054        0.0000 
     41 H           8.1027   36.6315   -2.5658 H         1 S054        0.0000 
     42 H           8.8117   36.2612   -0.9846 H         1 S054        0.0000 
     43 H           9.7168   40.6641   -4.3656 H         1 S054        0.0000 
     44 H           8.7606   40.1682   -6.5925 H         1 S054        0.0000 
     45 H           6.4886   38.3494   -3.8477 H         1 S054        0.0000 
@<TRIPOS>BOND
     1    2    1 1    
     2    6    1 ar   
     3   10    1 ar   
     4    3    2 1    
     5   24    2 1    
     6   25    2 1    
     7    4    3 1    
     8   26    3 1    
     9   27    3 1    
    10    5    4 1    
    11   28    4 1    
    12   29    4 1    
    13    6    5 1    
    14   11    5 am   
    15    7    6 ar   
    16    8    7 ar   
    17   30    7 1    
    18    9    8 ar   
    19   31    8 1    
    20   10    9 ar   
    21   32    9 1    
    22   33   10 1    
    23   12   11 2    
    24   13   11 am   
    25   14   13 1    
    26   18   13 1    
    27   15   14 1    
    28   34   14 1    
    29   35   14 1    
    30   16   15 1    
    31   36   15 1    
    32   37   15 1    
    33   17   16 1    
    34   19   16 1    
    35   38   16 1    
    36   18   17 1    
    37   39   17 1    
    38   40   17 1    
    39   41   18 1    
    40   42   18 1    
    41   20   19 1    
    42   23   19 2    
    43   21   20 1    
    44   43   20 1    
    45   22   21 2    
    46   44   21 1    
    47   23   22 1    
    48   45   23 1    
@<TRIPOS>SUBSTRUCTURE
     1 S054        1 GROUP   
@<TRIPOS>SET

