#    Name: 1mjh_ATP_1_INTS_M
#    Modification time : Tue Mar 25 11:52:42 2014

@<TRIPOS>MOLECULE
1mjh_ATP_1_INTS_M
   90     0    12     0     0
SMALL
NO_CHARGES


@<TRIPOS>ATOM
      1 N           7.0590    9.2285   28.3255 N.am      2 SEC2        0.0000 
      2 N           6.5970   10.6500   28.6970 N.am     10 SEL2        0.0000 
      3 N           7.5210    7.8070   27.9540 N.am      6 SEP2        0.0000 
      4 N           6.4505   10.3005   27.4285 N.am      2 SEC2        0.0000 
      5 N           6.3040    9.9510   26.1600 N.am      6 SEP2        0.0000 
      6 Zn          9.2380   12.8530   28.6775 Zn        3 ZIC7        0.0000 
      7 Zn          8.1590   12.4270   28.5610 Zn       11 ZIL7        0.0000 
      8 Zn         10.3170   13.2790   28.7940 Zn        7 ZIP7        0.0000 
      9 N           7.1360   13.4855   31.0645 N.am      2 SEC2        0.0000 
     10 N           6.5660   12.5210   30.2880 N.am     10 SEL2        0.0000 
     11 N           7.7060   14.4500   31.8410 N.am      6 SEP2        0.0000 
     12 N          11.2820   10.5820   32.5260 N.am      2 SEC2        0.0000 
     13 N           9.8230   10.6600   32.5730 N.am     10 SEL2        0.0000 
     14 N          12.7410   10.5040   32.4790 N.am      6 SEP2        0.0000 
     15 N           9.6035   11.4310   33.7615 N.am      2 SEC2        0.0000 
     16 N           9.3840   12.2020   34.9500 N.am      6 SEP2        0.0000 
     17 Zn         10.2680   12.8340   29.8620 Zn        3 ZIC7        0.0000 
     18 Zn         10.2190   12.3890   30.9300 Zn       11 ZIL7        0.0000 
     19 N          10.1580   13.3520   32.0785 N.am      2 SEC2        0.0000 
     20 N          10.2190   12.3890   30.9300 N.am     10 SEL2        0.0000 
     21 N          10.0970   14.3150   33.2270 N.am      6 SEP2        0.0000 
     22 N           9.9065    8.6470   26.9405 N.am      2 SEC2        0.0000 
     23 N          10.6890    8.8750   28.0940 N.am     10 SEL2        0.0000 
     24 N           9.1240    8.4190   25.7870 N.am      6 SEP2        0.0000 
     25 N          10.9365    7.6935   26.9225 N.am      2 SEC2        0.0000 
     26 N          11.1840    6.5120   25.7510 N.am      6 SEP2        0.0000 
     27 Zn         10.7130   12.2715   28.4780 Zn        3 ZIC7        0.0000 
     28 Zn         11.1090   11.2640   28.1620 Zn       11 ZIL7        0.0000 
     29 CA         13.0230    8.2990   30.7160 C.3       4 GLC5        0.0000 
     30 CA         13.5080    8.5100   28.8420 C.3      12 GLL5        0.0000 
     31 CA         12.5380    8.0880   32.5900 C.3       8 GLP5        0.0000 
     32 CA         12.9000    6.6490   27.9820 C.3       4 GLC5        0.0000 
     33 CA         12.2920    4.7880   27.1220 C.3       8 GLP5        0.0000 
     34 CA         15.0050    7.7540   26.4605 C.3       4 GLC5        0.0000 
     35 CA         14.8540    8.8190   28.1900 C.3      12 GLL5        0.0000 
     36 CA         15.1560    6.6890   24.7310 C.3       8 GLP5        0.0000 
     37 CA         14.5300   10.8270   30.4130 C.3       4 GLC5        0.0000 
     38 CA         15.7030    9.9250   28.8300 C.3      12 GLL5        0.0000 
     39 CA         13.3570   11.7290   31.9960 C.3       8 GLP5        0.0000 
     40 N          17.1340    7.9820   29.6315 N.am      2 SEC2        0.0000 
     41 N          16.4770    9.4050   29.9540 N.am     10 SEL2        0.0000 
     42 N          17.7910    6.5590   29.3090 N.am      6 SEP2        0.0000 
     43 O          15.5225    9.3335   31.0000 O.2       1 ALC1        0.0000 
     44 O          16.4770    9.4050   29.9540 O.2       9 ALL1        0.0000 
     45 O          14.5680    9.2620   32.0460 O.2       5 ALP1        0.0000 
     46 CA         18.2350   11.5950   27.0565 C.3       4 GLC5        0.0000 
     47 CA         16.6210   10.2470   27.6100 C.3      12 GLL5        0.0000 
     48 CA         19.8490   12.9430   26.5030 C.3       8 GLP5        0.0000 
     49 CA         18.0350   10.8995   29.1725 C.3       4 GLC5        0.0000 
     50 CA         19.4490   11.5520   30.7350 C.3       8 GLP5        0.0000 
     51 N          17.7230    7.9010   28.3960 N.am      2 SEC2        0.0000 
     52 N          17.6550    9.2430   27.4830 N.am     10 SEL2        0.0000 
     53 O          18.5705    9.7755   26.6855 O.2       1 ALC1        0.0000 
     54 O          17.6550    9.2430   27.4830 O.2       9 ALL1        0.0000 
     55 O          19.4860   10.3080   25.8880 O.2       5 ALP1        0.0000 
     56 CA         15.3700    8.4225   25.5830 C.3       4 GLC5        0.0000 
     57 CA         15.5840   10.1560   26.4350 C.3      12 GLL5        0.0000 
     58 CA         13.9260    9.8545   25.1345 C.3       4 GLC5        0.0000 
     59 CA         12.2680    9.5530   23.8340 C.3       8 GLP5        0.0000 
     60 CA         16.5395   16.0300   24.6065 C.3       4 GLC5        0.0000 
     61 CA         15.0120   14.5190   24.3730 C.3      12 GLL5        0.0000 
     62 CA         18.0670   17.5410   24.8400 C.3       8 GLP5        0.0000 
     63 CA         15.0100   15.2100   22.3725 C.3       4 GLC5        0.0000 
     64 CA         15.0080   15.9010   20.3720 C.3       8 GLP5        0.0000 
     65 O          14.4825   16.7410   23.4235 O.2       1 ALC1        0.0000 
     66 O          14.2180   15.6050   24.2340 O.2       9 ALL1        0.0000 
     67 O          14.7470   17.8770   22.6130 O.2       5 ALP1        0.0000 
     68 N          16.6540   15.4640   22.6440 N.am      2 SEC2        0.0000 
     69 N          16.1630   14.4360   23.7220 N.am     10 SEL2        0.0000 
     70 N          17.1450   16.4920   21.5660 N.am      6 SEP2        0.0000 
     71 CA         17.9110   11.6715   23.3120 C.3       4 GLC5        0.0000 
     72 CA         17.0230   13.3540   23.7850 C.3      12 GLL5        0.0000 
     73 CA         18.7990    9.9890   22.8390 C.3       8 GLP5        0.0000 
     74 CA         18.4360   13.1485   25.1440 C.3       4 GLC5        0.0000 
     75 CA         18.2575   14.8460   23.0280 C.3       4 GLC5        0.0000 
     76 CA         19.4920   16.3380   22.2710 C.3       8 GLP5        0.0000 
     77 CA         16.3755   14.0510   21.7490 C.3       4 GLC5        0.0000 
     78 CA         15.7280   14.7480   19.7130 C.3       8 GLP5        0.0000 
     79 CA         16.1125   11.6645   22.8375 C.3       4 GLC5        0.0000 
     80 CA         15.2020    9.9750   21.8900 C.3       8 GLP5        0.0000 
     81 CA         17.7105   12.6830   25.8545 C.3       4 GLC5        0.0000 
     82 CA         15.5720   12.4230   25.2060 C.3      12 GLL5        0.0000 
     83 CA         15.3870   11.1990   23.5480 C.3       4 GLC5        0.0000 
     84 CA         16.1872    7.8365   29.5465 C.3       4 GLC5        0.0000 
     85 CA         17.0960    6.3010   30.5830 C.3       8 GLP5        0.0000 
     86 CA         13.3453   13.7880   23.4017 C.3       4 GLC5        0.0000 
     87 CA         14.6630   13.4530   25.1780 C.3      12 GLL5        0.0000 
     88 CA         11.8530   13.5900   22.0280 C.3       8 GLP5        0.0000 
     89 CA         15.4989   14.0053   26.6579 C.3       4 GLC5        0.0000 
     90 CA         15.7930   14.8060   28.3250 C.3       8 GLP5        0.0000 
@<TRIPOS>BOND
@<TRIPOS>SUBSTRUCTURE
     1 ALC1       43 GROUP        1 X    ALC  0     ROOT ALC X 1
     2 SEC2        1 GROUP        1 X    SEC  0     **** SEC X 2
     3 ZIC7        6 GROUP        1 X    ZIC  0     **** ZIC X 5
     4 GLC5       29 GROUP        1 X    GLC  0     **** GLC X 6
     5 ALP1       45 GROUP        1 Y    ALP  0     ROOT ALP Y 8
     6 SEP2        3 GROUP        1 Y    SEP  0     **** SEP Y 9
     7 ZIP7        8 GROUP        1 Y    ZIP  0     **** ZIP Y 12
     8 GLP5       31 GROUP        1 Y    GLP  0     **** GLP Y 13
     9 ALL1       44 GROUP        1 Z    ALL  0     ROOT ALL Z 15
    10 SEL2        2 GROUP        1 Z    SEL  0     **** SEL Z 16
    11 ZIL7        7 GROUP        1 Z    ZIL  0     **** ZIL Z 19
    12 GLL5       30 GROUP        1 Z    GLL  0     **** GLL Z 20
@<TRIPOS>SET

