#    Name: 1mjh_ATP_1_ligand
#    Modification time : Tue Mar 25 11:52:42 2014

@<TRIPOS>MOLECULE
1mjh_ATP_1_ligand
   43    45     1     0     0
SMALL
NO_CHARGES


@<TRIPOS>ATOM
      1 PG          7.3750   11.5920   29.4660 P.3       1 ATP2001     0.0000 
      2 O1G         6.5970   10.6500   28.6970 O.co2     1 ATP2001     0.0000 
      3 O2G         8.1590   12.4270   28.5610 O.co2     1 ATP2001     0.0000 
      4 O3G         6.5660   12.5210   30.2880 O.co2     1 ATP2001     0.0000 
      5 PB          9.7570   11.0220   31.1300 P.3       1 ATP2001     0.0000 
      6 O1B         9.8230   10.6600   32.5730 O.co2     1 ATP2001     0.0000 
      7 O2B        10.2190   12.3890   30.9300 O.co2     1 ATP2001     0.0000 
      8 O3B         8.2960   10.7920   30.5480 O.3       1 ATP2001     0.0000 
      9 PA         11.3190    9.9770   28.8150 P.3       1 ATP2001     0.0000 
     10 O1A        10.6890    8.8750   28.0940 O.co2     1 ATP2001     0.0000 
     11 O2A        11.1090   11.2640   28.1620 O.co2     1 ATP2001     0.0000 
     12 O3A        10.6900   10.0040   30.3100 O.3       1 ATP2001     0.0000 
     13 O5'        12.8390    9.8120   29.1050 O.3       1 ATP2001     0.0000 
     14 C5'        13.5080    8.5100   28.8420 C.3       1 ATP2001     0.0000 
     15 C4'        14.8540    8.8190   28.1900 C.3       1 ATP2001     0.0000 
     16 O4'        14.5020    9.3740   26.8810 O.3       1 ATP2001     0.0000 
     17 C3'        15.7030    9.9250   28.8300 C.3       1 ATP2001     0.0000 
     18 O3'        16.4770    9.4050   29.9540 O.3       1 ATP2001     0.0000 
     19 C2'        16.6210   10.2470   27.6100 C.3       1 ATP2001     0.0000 
     20 O2'        17.6550    9.2430   27.4830 O.3       1 ATP2001     0.0000 
     21 C1'        15.5840   10.1560   26.4350 C.3       1 ATP2001     0.0000 
     22 N9         15.0070   11.4460   26.0910 N.pl3     1 ATP2001     0.0000 
     23 C8         13.8580   12.0480   26.4920 C.2       1 ATP2001     0.0000 
     24 N7         13.6220   13.2270   25.9480 N.2       1 ATP2001     0.0000 
     25 C5         14.6630   13.4530   25.1780 C.ar      1 ATP2001     0.0000 
     26 C6         15.0120   14.5190   24.3730 C.ar      1 ATP2001     0.0000 
     27 N6         14.2180   15.6050   24.2340 N.pl3     1 ATP2001     0.0000 
     28 N1         16.1630   14.4360   23.7220 N.ar      1 ATP2001     0.0000 
     29 C2         17.0230   13.3540   23.7850 C.ar      1 ATP2001     0.0000 
     30 N3         16.7220   12.3270   24.5570 N.ar      1 ATP2001     0.0000 
     31 C4         15.5720   12.4230   25.2060 C.ar      1 ATP2001     0.0000 
     32 H          12.9199    7.9115   28.1649 H         1 ATP2001     0.0000 
     33 H          13.6793    7.9786   29.7645 H         1 ATP2001     0.0000 
     34 H          15.4211    7.9453   28.0568 H         1 ATP2001     0.0000 
     35 H          15.1121   10.7423   29.0232 H         1 ATP2001     0.0000 
     36 H          16.9441   11.2253   27.6900 H         1 ATP2001     0.0000 
     37 H          16.0670    9.7121   25.6001 H         1 ATP2001     0.0000 
     38 H          13.2383   11.6074   27.1624 H         1 ATP2001     0.0000 
     39 H          13.3353   15.5675   24.7024 H         1 ATP2001     0.0000 
     40 H          14.5841   16.3491   23.6752 H         1 ATP2001     0.0000 
     41 H          17.8925   13.3779   23.2172 H         1 ATP2001     0.0000 
     42 H          15.8346    9.3778   30.7199 H         1 ATP2001     0.0000 
     43 H          18.4950    9.7572   27.3099 H         1 ATP2001     0.0000 
@<TRIPOS>BOND
     1    2    1 ar   
     2    3    1 ar   
     3    4    1 ar   
     4    8    1 1    
     5    6    5 ar   
     6    7    5 ar   
     7    8    5 1    
     8   12    5 1    
     9   10    9 ar   
    10   11    9 ar   
    11   12    9 1    
    12   13    9 1    
    13   14   13 1    
    14   15   14 1    
    15   32   14 1    
    16   33   14 1    
    17   16   15 1    
    18   17   15 1    
    19   34   15 1    
    20   21   16 1    
    21   18   17 1    
    22   19   17 1    
    23   35   17 1    
    24   42   18 1    
    25   20   19 1    
    26   21   19 1    
    27   36   19 1    
    28   43   20 1    
    29   22   21 1    
    30   37   21 1    
    31   23   22 1    
    32   31   22 1    
    33   24   23 2    
    34   38   23 1    
    35   25   24 1    
    36   26   25 ar   
    37   31   25 ar   
    38   27   26 1    
    39   28   26 ar   
    40   39   27 1    
    41   40   27 1    
    42   29   28 ar   
    43   30   29 ar   
    44   41   29 1    
    45   31   30 ar   
@<TRIPOS>SUBSTRUCTURE
     1 ATP2001     1 GROUP   
@<TRIPOS>SET

