#    Name: 3ua5_06X_1_INTS_M
#    Modification time : Mon Mar 24 22:05:11 2014

@<TRIPOS>MOLECULE
3ua5_06X_1_INTS_M
   55     0     6     0     0
SMALL
NO_CHARGES


@<TRIPOS>ATOM
      1 CA         14.9765    5.1285   42.1865 C.3       2 GLC5        0.0000 
      2 CA         16.5140    6.1060   40.9690 C.3       6 GLL5        0.0000 
      3 CA         13.4390    4.1510   43.4040 C.3       4 GLP5        0.0000 
      4 CA         17.1285    7.2360   35.4680 C.3       2 GLC5        0.0000 
      5 CA         15.9560    6.2420   37.0160 C.3       6 GLL5        0.0000 
      6 CA         18.3010    8.2300   33.9200 C.3       4 GLP5        0.0000 
      7 CA         17.2075    5.1730   34.6445 C.3       2 GLC5        0.0000 
      8 CA         16.5660    5.0700   36.5850 C.3       6 GLL5        0.0000 
      9 CA         17.8490    5.2760   32.7040 C.3       4 GLP5        0.0000 
     10 CA         12.8545    1.9345   39.5595 C.3       2 GLC5        0.0000 
     11 CA         13.9700    2.9910   38.2340 C.3       6 GLL5        0.0000 
     12 CA         11.7390    0.8780   40.8850 C.3       4 GLP5        0.0000 
     13 CA         14.7610    2.3735   36.6045 C.3       2 GLC5        0.0000 
     14 CA         15.5520    1.7560   34.9750 C.3       4 GLP5        0.0000 
     15 CA         12.2230    5.6160   38.4025 C.3       2 GLC5        0.0000 
     16 CA         12.8540    3.9710   38.6030 C.3       6 GLL5        0.0000 
     17 CA         11.5920    7.2610   38.2020 C.3       4 GLP5        0.0000 
     18 CA         11.6235    2.6830   39.4930 C.3       2 GLC5        0.0000 
     19 CA         10.3930    1.3950   40.3830 C.3       4 GLP5        0.0000 
     20 CA         12.1700    4.7200   40.5800 C.3       2 GLC5        0.0000 
     21 CA         11.4860    5.4690   42.5570 C.3       4 GLP5        0.0000 
     22 CA         22.8825    6.2655   36.6280 C.3       2 GLC5        0.0000 
     23 CA         21.5590    5.2590   37.5690 C.3       6 GLL5        0.0000 
     24 CA         24.2060    7.2720   35.6870 C.3       4 GLP5        0.0000 
     25 CA         20.8250    1.5880   37.8695 C.3       2 GLC5        0.0000 
     26 CA         21.1230    2.1910   39.5980 C.3       6 GLL5        0.0000 
     27 CA         20.5270    0.9850   36.1410 C.3       4 GLP5        0.0000 
     28 CA         21.4525    0.3605   39.0820 C.3       2 GLC5        0.0000 
     29 CA         21.7820   -1.4700   38.5660 C.3       4 GLP5        0.0000 
     30 CA         18.3870    0.1630   38.3980 C.3       2 GLC5        0.0000 
     31 CA         17.3810    0.0160   40.1380 C.3       6 GLL5        0.0000 
     32 CA         19.3930    0.3100   36.6580 C.3       4 GLP5        0.0000 
     33 CA         15.6610   -1.3075   39.5780 C.3       2 GLC5        0.0000 
     34 CA         13.9410   -2.6310   39.0180 C.3       4 GLP5        0.0000 
     35 N          17.7740   -1.9820   41.8615 N.am      1 SEC2        0.0000 
     36 N          17.1850   -0.4230   41.4860 N.am      5 SEL2        0.0000 
     37 N          18.3630   -3.5410   42.2370 N.am      3 SEP2        0.0000 
     38 CA         16.7720    1.3660   43.5295 C.3       2 GLC5        0.0000 
     39 CA         16.0910    0.2930   42.0660 C.3       6 GLL5        0.0000 
     40 CA         17.4530    2.4390   44.9930 C.3       4 GLP5        0.0000 
     41 CA         13.3130    0.1190   41.5455 C.3       2 GLC5        0.0000 
     42 CA         14.8870   -0.6400   42.2060 C.3       6 GLL5        0.0000 
     43 CA         14.4140   -1.6355   40.6120 C.3       2 GLC5        0.0000 
     44 CA         18.2267    6.5637   40.7640 C.3       2 GLC5        0.0000 
     45 CA         16.5350    5.7090   39.2910 C.3       6 GLL5        0.0000 
     46 CA         19.9290    7.2200   41.3980 C.3       4 GLP5        0.0000 
     47 CA         14.5725    7.3700   36.6745 C.3       2 GLC5        0.0000 
     48 CA         15.9400    6.5620   38.3680 C.3       6 GLL5        0.0000 
     49 CA         13.1970    8.3380   35.6570 C.3       4 GLP5        0.0000 
     50 CA         19.1707    5.4185   40.5118 C.3       2 GLC5        0.0000 
     51 CA         17.7400    3.6850   39.7830 C.3       6 GLL5        0.0000 
     52 CA         11.9435    3.4990   37.3117 C.3       2 GLC5        0.0000 
     53 CA         10.4750    3.5170   36.2050 C.3       4 GLP5        0.0000 
     54 CA         19.2286    3.2973   41.8051 C.3       2 GLC5        0.0000 
     55 CA         19.3620    3.5800   43.8640 C.3       4 GLP5        0.0000 
@<TRIPOS>BOND
@<TRIPOS>SUBSTRUCTURE
     1 SEC2       35 GROUP        1 X    SEC  0     ROOT SEC X 2
     2 GLC5        1 GROUP        1 X    GLC  0     **** GLC X 6
     3 SEP2       37 GROUP        1 Y    SEP  0     ROOT SEP Y 9
     4 GLP5        3 GROUP        1 Y    GLP  0     **** GLP Y 13
     5 SEL2       36 GROUP        1 Z    SEL  0     ROOT SEL Z 16
     6 GLL5        2 GROUP        1 Z    GLL  0     **** GLL Z 20
@<TRIPOS>SET

