#    Name: 3ua5_06X_1_ligand
#    Modification time : Mon Mar 24 22:05:11 2014

@<TRIPOS>MOLECULE
3ua5_06X_1_ligand
   54    55     1     0     0
SMALL
NO_CHARGES


@<TRIPOS>ATOM
      1 CLAG       16.5140    6.1060   40.9690 Cl        1 06X501      0.0000 
      2 CAZ        16.5350    5.7090   39.2910 C.ar      1 06X501      0.0000 
      3 CAJ        15.9400    6.5620   38.3680 C.ar      1 06X501      0.0000 
      4 CAH        15.9560    6.2420   37.0160 C.ar      1 06X501      0.0000 
      5 CAI        16.5660    5.0700   36.5850 C.ar      1 06X501      0.0000 
      6 CAK        17.1610    4.2170   37.5080 C.ar      1 06X501      0.0000 
      7 CBA        17.1450    4.5370   38.8610 C.ar      1 06X501      0.0000 
      8 CBB        17.7400    3.6850   39.7830 C.3       1 06X501      0.0000 
      9 CAY        17.1470    2.4230   39.7410 C.2       1 06X501      0.0000 
     10 CAV        15.8390    2.2370   39.2960 C.2       1 06X501      0.0000 
     11 OAF        15.3450    1.1110   39.2670 O.2       1 06X501      0.0000 
     12 OAS        15.1720    3.3590   38.9140 O.3       1 06X501      0.0000 
     13 CAL        13.9700    2.9910   38.2340 C.3       1 06X501      0.0000 
     14 CAA        12.8540    3.9710   38.6030 C.3       1 06X501      0.0000 
     15 CAX        19.0850    3.5490   39.4680 C.2       1 06X501      0.0000 
     16 CAU        19.7390    4.5310   38.7320 C.2       1 06X501      0.0000 
     17 OAE        19.1500    5.5430   38.3560 O.2       1 06X501      0.0000 
     18 OAQ        21.0510    4.2800   38.4810 O.3       1 06X501      0.0000 
     19 CAB        21.5590    5.2590   37.5690 C.3       1 06X501      0.0000 
     20 CAT        19.7780    2.4120   39.8670 C.2       1 06X501      0.0000 
     21 CAC        21.1230    2.1910   39.5980 C.3       1 06X501      0.0000 
     22 NAP        19.1280    1.4920   40.5760 N.pl3     1 06X501      0.0000 
     23 CAW        17.8810    1.3120   40.1400 C.2       1 06X501      0.0000 
     24 CAO        17.3810    0.0160   40.1380 C.3       1 06X501      0.0000 
     25 OAR        17.1850   -0.4230   41.4860 O.3       1 06X501      0.0000 
     26 CAN        16.0910    0.2930   42.0660 C.3       1 06X501      0.0000 
     27 CAM        14.8870   -0.6400   42.2060 C.3       1 06X501      0.0000 
     28 NAD        14.8880   -1.3080   43.5150 N.4       1 06X501      0.0000 
     29 H          15.4884    7.4293   38.6864 H         1 06X501      0.0000 
     30 H          15.5157    6.8734   36.3330 H         1 06X501      0.0000 
     31 H          16.5775    4.8335   35.5846 H         1 06X501      0.0000 
     32 H          17.6127    3.3498   37.1900 H         1 06X501      0.0000 
     33 H          17.6435    4.1024   40.7925 H         1 06X501      0.0000 
     34 H          13.6367    1.9860   38.5119 H         1 06X501      0.0000 
     35 H          14.0927    3.0194   37.1466 H         1 06X501      0.0000 
     36 H          19.5253    0.9957   41.3423 H         1 06X501      0.0000 
     37 H          18.0725   -0.6801   39.6189 H         1 06X501      0.0000 
     38 H          16.4196   -0.0423   39.5862 H         1 06X501      0.0000 
     39 H          15.7859    1.1413   41.4450 H         1 06X501      0.0000 
     40 H          16.3370    0.6729   43.0627 H         1 06X501      0.0000 
     41 H          14.9274   -1.3769   41.3957 H         1 06X501      0.0000 
     42 H          13.9752   -0.0460   42.0756 H         1 06X501      0.0000 
     43 H          12.6718    3.9733   39.5863 H         1 06X501      0.0000 
     44 H          13.0837    4.9095   38.3453 H         1 06X501      0.0000 
     45 H          11.9940    3.7437   38.1461 H         1 06X501      0.0000 
     46 H          22.5252    5.1068   37.3610 H         1 06X501      0.0000 
     47 H          21.0665    5.2469   36.6988 H         1 06X501      0.0000 
     48 H          21.4808    6.1855   37.9372 H         1 06X501      0.0000 
     49 H          21.7026    2.9046   39.9915 H         1 06X501      0.0000 
     50 H          21.4380    1.3185   39.9715 H         1 06X501      0.0000 
     51 H          21.3071    2.1727   38.6153 H         1 06X501      0.0000 
     52 H          15.7115   -1.8590   43.6501 H         1 06X501      0.0000 
     53 H          14.8485   -0.6506   44.2675 H         1 06X501      0.0000 
     54 H          14.1048   -1.9208   43.6198 H         1 06X501      0.0000 
@<TRIPOS>BOND
     1    2    1 1    
     2    3    2 ar   
     3    7    2 ar   
     4    4    3 ar   
     5   29    3 1    
     6    5    4 ar   
     7   30    4 1    
     8    6    5 ar   
     9   31    5 1    
    10    7    6 ar   
    11   32    6 1    
    12    8    7 1    
    13    9    8 1    
    14   15    8 1    
    15   33    8 1    
    16   10    9 1    
    17   23    9 2    
    18   11   10 2    
    19   12   10 1    
    20   13   12 1    
    21   14   13 1    
    22   34   13 1    
    23   35   13 1    
    24   43   14 1    
    25   44   14 1    
    26   45   14 1    
    27   16   15 1    
    28   20   15 2    
    29   17   16 2    
    30   18   16 1    
    31   19   18 1    
    32   46   19 1    
    33   47   19 1    
    34   48   19 1    
    35   21   20 1    
    36   22   20 1    
    37   49   21 1    
    38   50   21 1    
    39   51   21 1    
    40   23   22 1    
    41   36   22 1    
    42   24   23 1    
    43   25   24 1    
    44   37   24 1    
    45   38   24 1    
    46   26   25 1    
    47   27   26 1    
    48   39   26 1    
    49   40   26 1    
    50   28   27 1    
    51   41   27 1    
    52   42   27 1    
    53   52   28 1    
    54   53   28 1    
    55   54   28 1    
@<TRIPOS>SUBSTRUCTURE
     1 06X501      1 GROUP   
@<TRIPOS>SET

