#    Name: 1re0_AFB_1_INTS_M
#    Modification time : Tue Mar 25 00:32:28 2014

@<TRIPOS>MOLECULE
1re0_AFB_1_INTS_M
   68     0     9     0     0
SMALL
NO_CHARGES


@<TRIPOS>ATOM
      1 N          42.1680   11.7745   34.1355 N.am      2 SEC2        0.0000 
      2 N          41.7120   12.2160   35.5400 N.am      8 SEL2        0.0000 
      3 N          42.6240   11.3330   32.7310 N.am      5 SEP2        0.0000 
      4 O          42.1965   13.1975   36.3595 O.2       1 ALC1        0.0000 
      5 O          41.7120   12.2160   35.5400 O.2       7 ALL1        0.0000 
      6 O          42.6810   14.1790   37.1790 O.2       4 ALP1        0.0000 
      7 CA         44.9740   10.5800   36.8205 C.3       3 GLC5        0.0000 
      8 CA         42.9750   10.4790   36.7710 C.3       9 GLL5        0.0000 
      9 CA         46.9730   10.6810   36.8700 C.3       6 GLP5        0.0000 
     10 CA         38.6385   10.9820   37.0970 C.3       3 GLC5        0.0000 
     11 CA         40.7910   10.7860   37.4900 C.3       9 GLL5        0.0000 
     12 CA         36.4860   11.1780   36.7040 C.3       6 GLP5        0.0000 
     13 CA         39.9530   12.2710   38.2240 C.3       3 GLC5        0.0000 
     14 CA         39.1150   13.7560   38.9580 C.3       6 GLP5        0.0000 
     15 CA         42.6115    7.8890   36.0295 C.3       3 GLC5        0.0000 
     16 CA         42.6250    9.1410   37.4240 C.3       9 GLL5        0.0000 
     17 CA         42.5980    6.6370   34.6350 C.3       6 GLP5        0.0000 
     18 CA         44.7510    9.0440   36.8725 C.3       3 GLC5        0.0000 
     19 CA         46.8770    8.9470   36.3210 C.3       6 GLP5        0.0000 
     20 CA         43.7310    9.8375   40.1775 C.3       3 GLC5        0.0000 
     21 CA         43.5350    8.7580   38.5480 C.3       9 GLL5        0.0000 
     22 CA         43.9270   10.9170   41.8070 C.3       6 GLP5        0.0000 
     23 CA         45.1340    9.6290   38.5985 C.3       3 GLC5        0.0000 
     24 CA         46.7330   10.5000   38.6490 C.3       6 GLP5        0.0000 
     25 CA         43.3300    7.0980   36.6660 C.3       3 GLC5        0.0000 
     26 CA         44.0620    7.5590   38.6970 C.3       9 GLL5        0.0000 
     27 CA         45.4695    8.2530   37.5090 C.3       3 GLC5        0.0000 
     28 CA         44.4525    9.0040   40.8115 C.3       3 GLC5        0.0000 
     29 CA         44.9780    7.0910   39.8160 C.3       9 GLL5        0.0000 
     30 CA         46.3810    8.4235   40.3340 C.3       3 GLC5        0.0000 
     31 CA         47.7840    9.7560   40.8520 C.3       6 GLP5        0.0000 
     32 CA         45.2305    7.1790   41.9880 C.3       3 GLC5        0.0000 
     33 CA         45.4830    7.2670   44.1600 C.3       6 GLP5        0.0000 
     34 CA         44.3210    6.1575   42.4085 C.3       3 GLC5        0.0000 
     35 CA         44.4180    5.8920   40.6060 C.3       9 GLL5        0.0000 
     36 CA         44.2240    6.4230   44.2110 C.3       6 GLP5        0.0000 
     37 CA         46.1115    4.9200   41.5870 C.3       3 GLC5        0.0000 
     38 CA         47.8050    3.9480   42.5680 C.3       6 GLP5        0.0000 
     39 CA         42.0555    4.2185   41.9035 C.3       3 GLC5        0.0000 
     40 CA         42.8780    3.9220   39.8640 C.3       9 GLL5        0.0000 
     41 CA         41.2330    4.5150   43.9430 C.3       6 GLP5        0.0000 
     42 N          38.7910    4.5315   40.5370 N.am      2 SEC2        0.0000 
     43 N          40.1610    4.3330   40.4350 N.am      8 SEL2        0.0000 
     44 N          37.4210    4.7300   40.6390 N.am      5 SEP2        0.0000 
     45 N          37.6815    8.7205   36.9875 N.am      2 SEC2        0.0000 
     46 N          38.8340    8.6170   38.0610 N.am      8 SEL2        0.0000 
     47 N          36.5290    8.8240   35.9140 N.am      5 SEP2        0.0000 
     48 CA         42.4138   11.7195   38.3710 C.3       3 GLC5        0.0000 
     49 CA         41.6340   10.9370   36.2550 C.3       9 GLL5        0.0000 
     50 CA         42.5230   12.7310   40.2290 C.3       6 GLP5        0.0000 
     51 CA         42.1432    9.1300   35.1680 C.3       3 GLC5        0.0000 
     52 CA         41.9820    7.5520   33.8230 C.3       6 GLP5        0.0000 
     53 CA         42.9297   10.5455   34.4495 C.3       3 GLC5        0.0000 
     54 CA         43.5550   10.3830   32.3860 C.3       6 GLP5        0.0000 
     55 CA         43.6557   12.2270   36.7110 C.3       3 GLC5        0.0000 
     56 CA         45.0070   13.7460   36.9090 C.3       6 GLP5        0.0000 
     57 CA         41.8171   10.6725   39.2575 C.3       3 GLC5        0.0000 
     58 CA         41.8460   11.7420   40.9450 C.3       6 GLP5        0.0000 
     59 CA         45.6325    5.9465   38.0808 C.3       3 GLC5        0.0000 
     60 CA         46.7450    4.5680   36.9050 C.3       6 GLP5        0.0000 
     61 CA         44.5754    3.4436   38.1940 C.3       3 GLC5        0.0000 
     62 CA         44.2590    4.5810   39.8140 C.3       9 GLL5        0.0000 
     63 CA         45.9540    3.4300   36.9330 C.3       6 GLP5        0.0000 
     64 CA         43.7779    2.5786   41.2935 C.3       3 GLC5        0.0000 
     65 CA         44.3590    1.7000   43.1320 C.3       6 GLP5        0.0000 
     66 CA         40.3506    6.4337   36.5361 C.3       3 GLC5        0.0000 
     67 CA         39.9910    6.1330   38.9320 C.3       9 GLL5        0.0000 
     68 CA         40.5090    5.4810   35.0700 C.3       6 GLP5        0.0000 
@<TRIPOS>BOND
@<TRIPOS>SUBSTRUCTURE
     1 ALC1        4 GROUP        1 X    ALC  0     ROOT ALC X 1
     2 SEC2        1 GROUP        1 X    SEC  0     **** SEC X 2
     3 GLC5        7 GROUP        1 X    GLC  0     **** GLC X 6
     4 ALP1        6 GROUP        1 Y    ALP  0     ROOT ALP Y 8
     5 SEP2        3 GROUP        1 Y    SEP  0     **** SEP Y 9
     6 GLP5        9 GROUP        1 Y    GLP  0     **** GLP Y 13
     7 ALL1        5 GROUP        1 Z    ALL  0     ROOT ALL Z 15
     8 SEL2        2 GROUP        1 Z    SEL  0     **** SEL Z 16
     9 GLL5        8 GROUP        1 Z    GLL  0     **** GLL Z 20
@<TRIPOS>SET

