#    Name: 1re0_AFB_1_ligand
#    Modification time : Tue Mar 25 00:32:28 2014

@<TRIPOS>MOLECULE
1re0_AFB_1_ligand
   44    45     1     0     0
SMALL
NO_CHARGES


@<TRIPOS>ATOM
      1 OC7        41.7120   12.2160   35.5400 O.3       1 AFB702      0.0000 
      2 C7         41.6340   10.9370   36.2550 C.3       1 AFB702      0.0000 
      3 C8         42.9750   10.4790   36.7710 C.3       1 AFB702      0.0000 
      4 C6         40.7910   10.7860   37.4900 C.3       1 AFB702      0.0000 
      5 C5         41.1120    9.3440   37.9420 C.3       1 AFB702      0.0000 
      6 C9         42.6250    9.1410   37.4240 C.3       1 AFB702      0.0000 
      7 C10        43.5350    8.7580   38.5480 C.2       1 AFB702      0.0000 
      8 C11        44.0620    7.5590   38.6970 C.2       1 AFB702      0.0000 
      9 C12        44.9780    7.0910   39.8160 C.3       1 AFB702      0.0000 
     10 C13        44.4180    5.8920   40.6060 C.3       1 AFB702      0.0000 
     11 C14        44.2590    4.5810   39.8140 C.3       1 AFB702      0.0000 
     12 C15        42.8780    3.9220   39.8640 C.3       1 AFB702      0.0000 
     13 C16        42.8250    2.6630   39.0710 C.3       1 AFB702      0.0000 
     14 O16        42.0060    4.9390   39.2700 O.3       1 AFB702      0.0000 
     15 C1         40.7060    5.0400   39.6300 C.2       1 AFB702      0.0000 
     16 OC1        40.1610    4.3330   40.4350 O.2       1 AFB702      0.0000 
     17 C2         39.9910    6.1330   38.9320 C.2       1 AFB702      0.0000 
     18 C3         40.5820    6.9190   38.0530 C.2       1 AFB702      0.0000 
     19 C4         40.0980    8.2470   37.5120 C.3       1 AFB702      0.0000 
     20 OC4        38.8340    8.6170   38.0610 O.3       1 AFB702      0.0000 
     21 H          41.3176   10.1188   35.5609 H         1 AFB702      0.0000 
     22 H          43.3354   11.1469   37.5048 H         1 AFB702      0.0000 
     23 H          43.6427   10.3172   35.9695 H         1 AFB702      0.0000 
     24 H          39.7634   10.8525   37.2529 H         1 AFB702      0.0000 
     25 H          41.1026   11.4605   38.2414 H         1 AFB702      0.0000 
     26 H          41.1967    9.3718   39.0378 H         1 AFB702      0.0000 
     27 H          42.5746    8.3885   36.6682 H         1 AFB702      0.0000 
     28 H          43.7227    9.5454   39.2248 H         1 AFB702      0.0000 
     29 H          43.8681    6.7739   37.9896 H         1 AFB702      0.0000 
     30 H          45.1517    7.9206   40.5163 H         1 AFB702      0.0000 
     31 H          45.9532    6.8073   39.3947 H         1 AFB702      0.0000 
     32 H          43.4315    6.1746   41.0242 H         1 AFB702      0.0000 
     33 H          45.0788    5.7024   41.4752 H         1 AFB702      0.0000 
     34 H          45.0149    3.8547   40.1825 H         1 AFB702      0.0000 
     35 H          44.5224    4.7782   38.7526 H         1 AFB702      0.0000 
     36 H          42.6170    3.7650   40.8771 H         1 AFB702      0.0000 
     37 H          38.9831    6.2300   39.1922 H         1 AFB702      0.0000 
     38 H          41.5356    6.6419   37.6229 H         1 AFB702      0.0000 
     39 H          40.0891    8.2243   36.4483 H         1 AFB702      0.0000 
     40 H          43.0323    2.8230   38.1059 H         1 AFB702      0.0000 
     41 H          43.4820    1.9866   39.4037 H         1 AFB702      0.0000 
     42 H          41.9210    2.2373   39.1099 H         1 AFB702      0.0000 
     43 H          41.7139   12.9134   36.2568 H         1 AFB702      0.0000 
     44 H          39.0524    9.2039   38.8407 H         1 AFB702      0.0000 
@<TRIPOS>BOND
     1    2    1 1    
     2   43    1 1    
     3    3    2 1    
     4    4    2 1    
     5   21    2 1    
     6    6    3 1    
     7   22    3 1    
     8   23    3 1    
     9    5    4 1    
    10   24    4 1    
    11   25    4 1    
    12    6    5 1    
    13   19    5 1    
    14   26    5 1    
    15    7    6 1    
    16   27    6 1    
    17    8    7 2    
    18   28    7 1    
    19    9    8 1    
    20   29    8 1    
    21   10    9 1    
    22   30    9 1    
    23   31    9 1    
    24   11   10 1    
    25   32   10 1    
    26   33   10 1    
    27   12   11 1    
    28   34   11 1    
    29   35   11 1    
    30   13   12 1    
    31   14   12 1    
    32   36   12 1    
    33   40   13 1    
    34   41   13 1    
    35   42   13 1    
    36   15   14 1    
    37   16   15 2    
    38   17   15 1    
    39   18   17 2    
    40   37   17 1    
    41   19   18 1    
    42   38   18 1    
    43   20   19 1    
    44   39   19 1    
    45   44   20 1    
@<TRIPOS>SUBSTRUCTURE
     1 AFB702      1 GROUP   
@<TRIPOS>SET

