#    Name: 3ZYC_2_CAVITY_N1_6.mol2
#    Modification time : Tue Mar 11 15:59:32 2014

@<TRIPOS>MOLECULE
3ZYC_2_CAVITY_N1_6.mol2
   21     0     5     0     0
SMALL
NO_CHARGES


@<TRIPOS>ATOM
      1 OG         22.7332   19.7429   10.1135 O.2       1 SER1        0.0000 
      2 CA         19.5183   20.4127   10.7963 C.3       4 GLY6        0.0000 
      3 CA         20.7863   19.6258   10.9478 C.3       4 GLY6        0.0000 
      4 DU         22.0543   18.8389   11.0993 H         5 CUB7        0.0000 
      5 CA         23.3223   18.0520   11.2508 C.3       4 GLY6        0.0000 
      6 CA         24.5903   17.2650   11.4023 C.3       4 GLY6        0.0000 
      7 OD1        20.1075   18.7217   11.9336 O.3       3 ASP3        0.0000 
      8 OG         21.3755   17.9348   12.0851 O.2       1 SER1        0.0000 
      9 OG         22.6435   17.1479   12.2366 O.2       1 SER1        0.0000 
     10 N          19.0925   19.5108    9.6759 N.2       2 ALA2        0.0000 
     11 N          20.3605   18.7239    9.8274 N.2       2 ALA2        0.0000 
     12 OD1        18.4136   18.6067   10.6617 O.3       3 ASP3        0.0000 
     13 OD1        19.6816   17.8198   10.8132 O.3       3 ASP3        0.0000 
     14 OG         20.9496   17.0329   10.9647 O.2       1 SER1        0.0000 
     15 CA         21.2122   20.5277   12.0681 C.3       4 GLY6        0.0000 
     16 CA         22.4802   19.7408   12.2196 C.3       4 GLY6        0.0000 
     17 OD1        20.5333   19.6236   13.0540 O.3       3 ASP3        0.0000 
     18 OG         21.8013   18.8367   13.2055 O.2       1 SER1        0.0000 
     19 OG         21.1225   17.9327   14.1913 O.2       1 SER1        0.0000 
     20 OD1        17.3089   16.8008   10.5272 O.3       3 ASP3        0.0000 
     21 OD1        18.5769   16.0139   10.6787 O.3       3 ASP3        0.0000 
@<TRIPOS>BOND
@<TRIPOS>SUBSTRUCTURE
     1 SER1        1 GROUP   
     2 ALA2       10 GROUP   
     3 ASP3        7 GROUP   
     4 GLY6        2 GROUP   
     5 CUB7        4 GROUP   
@<TRIPOS>SET

