#    Name: 3zyc_GCP_2_INTS_M
#    Modification time : Tue Mar 25 04:41:18 2014

@<TRIPOS>MOLECULE
3zyc_GCP_2_INTS_M
   82     0    15     0     0
SMALL
NO_CHARGES


@<TRIPOS>ATOM
      1 NZ         19.4495   10.3080   17.1930 N.4       3 LYC4        0.0000 
      2 NZ         20.7740   10.6420   16.9830 N.4      13 LYL4        0.0000 
      3 NZ         18.1250    9.9740   17.4030 N.4       8 LYP4        0.0000 
      4 N          20.3095   11.3605   15.7340 N.am      2 SEC2        0.0000 
      5 N          20.7740   10.6420   16.9830 N.am     12 SEL2        0.0000 
      6 N          19.8450   12.0790   14.4850 N.am      7 SEP2        0.0000 
      7 N          19.4495   10.3080   17.1930 N.am      2 SEC2        0.0000 
      8 N          18.1250    9.9740   17.4030 N.am      7 SEP2        0.0000 
      9 Zn         21.2475   11.5180   20.2365 Zn        4 ZIC7        0.0000 
     10 Zn         21.6380   11.0130   19.3500 Zn       14 ZIL7        0.0000 
     11 Zn         20.8570   12.0230   21.1230 Zn        9 ZIP7        0.0000 
     12 N          23.2060   10.9255   19.9320 N.am      2 SEC2        0.0000 
     13 N          21.6380   11.0130   19.3500 N.am     12 SEL2        0.0000 
     14 N          24.7740   10.8380   20.5140 N.am      7 SEP2        0.0000 
     15 N          24.5415   11.6945   17.7565 N.am      2 SEC2        0.0000 
     16 N          23.1270   11.4690   17.5440 N.am     12 SEL2        0.0000 
     17 N          25.9560   11.9200   17.9690 N.am      7 SEP2        0.0000 
     18 N          23.9505   11.1535   19.0290 N.am      2 SEC2        0.0000 
     19 CA         20.3805   13.3195   16.1780 C.3       5 GLC5        0.0000 
     20 CA         21.1210   13.1080   17.9270 C.3      15 GLL5        0.0000 
     21 CA         19.6400   13.5310   14.4290 C.3      10 GLP5        0.0000 
     22 Zn         20.1320   12.6290   20.5885 Zn        4 ZIC7        0.0000 
     23 Zn         19.4070   13.2350   20.0540 Zn       14 ZIL7        0.0000 
     24 N          18.4080   13.3390   21.0075 N.am      2 SEC2        0.0000 
     25 N          19.4070   13.2350   20.0540 N.am     12 SEL2        0.0000 
     26 N          17.4090   13.4430   21.9610 N.am      7 SEP2        0.0000 
     27 NZ         18.3625   11.2715   17.5545 N.4       3 LYC4        0.0000 
     28 NZ         18.6000   12.5690   17.7060 N.4      13 LYL4        0.0000 
     29 N          19.2225   12.3240   16.0955 N.am      2 SEC2        0.0000 
     30 N          18.6000   12.5690   17.7060 N.am     12 SEL2        0.0000 
     31 N          17.4930   13.5655   17.2370 N.am      2 SEC2        0.0000 
     32 N          16.3860   14.5620   16.7680 N.am      7 SEP2        0.0000 
     33 N          17.3145   13.0510   18.4960 N.am      2 SEC2        0.0000 
     34 N          16.0290   13.5330   19.2860 N.am      7 SEP2        0.0000 
     35 N          18.3625   11.2715   17.5545 N.am      2 SEC2        0.0000 
     36 N          17.9400   16.3115   21.4170 N.am      2 SEC2        0.0000 
     37 N          18.8440   16.5100   20.0960 N.am     12 SEL2        0.0000 
     38 N          17.0360   16.1130   22.7380 N.am      7 SEP2        0.0000 
     39 N          18.2430   17.5670   20.7095 N.am      2 SEC2        0.0000 
     40 N          17.6420   18.6240   21.3230 N.am      7 SEP2        0.0000 
     41 CA         20.1000   15.2895   15.5980 C.3       5 GLC5        0.0000 
     42 CA         20.5600   17.0480   16.7670 C.3      15 GLL5        0.0000 
     43 N          18.6840   18.2315   14.2775 N.am      2 SEC2        0.0000 
     44 N          19.4930   18.8430   15.5620 N.am     12 SEL2        0.0000 
     45 N          17.8750   17.6200   12.9930 N.am      7 SEP2        0.0000 
     46 CA         23.0670   18.9560   17.6715 C.3       5 GLC5        0.0000 
     47 CA         21.3950   19.4840   16.8530 C.3      15 GLL5        0.0000 
     48 CA         24.7390   18.4280   18.4900 C.3      10 GLP5        0.0000 
     49 O          23.4190   20.7280   16.4450 O.2       1 ALC1        0.0000 
     50 O          22.2890   20.2330   16.0330 O.2      11 ALL1        0.0000 
     51 O          24.5490   21.2230   16.8570 O.2       6 ALP1        0.0000 
     52 O          19.3335   22.3245   17.9660 O.2       1 ALC1        0.0000 
     53 O          20.5190   21.6820   17.4390 O.2      11 ALL1        0.0000 
     54 O          18.1480   22.9670   18.4930 O.2       6 ALP1        0.0000 
     55 CA         17.9460   19.0980   14.8780 C.3       5 GLC5        0.0000 
     56 CA         19.2620   20.1430   16.0560 C.3      15 GLL5        0.0000 
     57 CA         16.6300   18.0530   13.7000 C.3      10 GLP5        0.0000 
     58 CA         15.1395   20.1355   14.9800 C.3       5 GLC5        0.0000 
     59 CA         15.7480   20.8770   16.4690 C.3      15 GLL5        0.0000 
     60 CA         14.5310   19.3940   13.4910 C.3      10 GLP5        0.0000 
     61 CA         15.0610   21.1115   18.2280 C.3       5 GLC5        0.0000 
     62 CA         14.3740   21.3460   19.9870 C.3      10 GLP5        0.0000 
     63 N          12.6535   20.7165   15.4615 N.am      2 SEC2        0.0000 
     64 N          13.4450   21.5450   16.5240 N.am     12 SEL2        0.0000 
     65 N          11.8620   19.8880   14.3990 N.am      7 SEP2        0.0000 
     66 N          13.0765   22.1415   17.6975 N.am      2 SEC2        0.0000 
     67 N          12.7080   22.7380   18.8710 N.am      7 SEP2        0.0000 
     68 O          13.9175   23.4590   14.5695 O.2       1 ALC1        0.0000 
     69 O          14.9780   22.7670   15.3630 O.2      11 ALL1        0.0000 
     70 O          12.8570   24.1510   13.7760 O.2       6 ALP1        0.0000 
     71 O          17.6390   24.3180   13.3455 O.2       1 ALC1        0.0000 
     72 O          16.3830   24.0720   14.0810 O.2      11 ALL1        0.0000 
     73 O          18.8950   24.5640   12.6100 O.2       6 ALP1        0.0000 
     74 O          15.2390   25.0040   13.9860 O.2       1 ALC1        0.0000 
     75 O          14.0950   25.9360   13.8910 O.2       6 ALP1        0.0000 
     76 CA         16.8005   19.6305   14.8135 C.3       5 GLC5        0.0000 
     77 CA         16.9710   21.2080   15.9270 C.3      15 GLL5        0.0000 
     78 CA         18.0560   22.9820   16.2555 C.3       5 GLC5        0.0000 
     79 CA         19.1410   24.7560   16.5840 C.3      10 GLP5        0.0000 
     80 CA         21.6125   20.7950   18.7373 C.3       5 GLC5        0.0000 
     81 CA         20.1850   20.3200   17.2620 C.3      15 GLL5        0.0000 
     82 CA         22.4350   21.6880   20.4170 C.3      10 GLP5        0.0000 
@<TRIPOS>BOND
@<TRIPOS>SUBSTRUCTURE
     1 ALC1       49 GROUP        1 X    ALC  0     ROOT ALC X 1
     2 SEC2        4 GROUP        1 X    SEC  0     **** SEC X 2
     3 LYC4        1 GROUP        1 X    LYC  0     **** LYC X 4
     4 ZIC7        9 GROUP        1 X    ZIC  0     **** ZIC X 5
     5 GLC5       19 GROUP        1 X    GLC  0     **** GLC X 6
     6 ALP1       51 GROUP        1 Y    ALP  0     ROOT ALP Y 8
     7 SEP2        6 GROUP        1 Y    SEP  0     **** SEP Y 9
     8 LYP4        3 GROUP        1 Y    LYP  0     **** LYP Y 11
     9 ZIP7       11 GROUP        1 Y    ZIP  0     **** ZIP Y 12
    10 GLP5       21 GROUP        1 Y    GLP  0     **** GLP Y 13
    11 ALL1       50 GROUP        1 Z    ALL  0     ROOT ALL Z 15
    12 SEL2        5 GROUP        1 Z    SEL  0     **** SEL Z 16
    13 LYL4        2 GROUP        1 Z    LYL  0     **** LYL Z 18
    14 ZIL7       10 GROUP        1 Z    ZIL  0     **** ZIL Z 19
    15 GLL5       20 GROUP        1 Z    GLL  0     **** GLL Z 20
@<TRIPOS>SET

