#    Name: 3zyc_GCP_2_ligand
#    Modification time : Tue Mar 25 04:41:18 2014

@<TRIPOS>MOLECULE
3zyc_GCP_2_ligand
   46    48     1     0     0
SMALL
NO_CHARGES


@<TRIPOS>ATOM
      1 PG         21.6870   11.3580   17.9100 P.3       1 GCP1749     0.0000 
      2 O1G        20.7740   10.6420   16.9830 O.co2     1 GCP1749     0.0000 
      3 O2G        21.6380   11.0130   19.3500 O.co2     1 GCP1749     0.0000 
      4 O3G        23.1270   11.4690   17.5440 O.co2     1 GCP1749     0.0000 
      5 C3B        21.1210   13.1080   17.9270 C.3       1 GCP1749     0.0000 
      6 PB         19.4440   13.4220   18.5830 P.3       1 GCP1749     0.0000 
      7 O1B        19.4070   13.2350   20.0540 O.co2     1 GCP1749     0.0000 
      8 O2B        18.6000   12.5690   17.7060 O.co2     1 GCP1749     0.0000 
      9 O3A        19.0430   14.9190   18.1990 O.3       1 GCP1749     0.0000 
     10 PA         19.7890   16.0460   19.0520 P.3       1 GCP1749     0.0000 
     11 O1A        18.8440   16.5100   20.0960 O.co2     1 GCP1749     0.0000 
     12 O2A        21.1420   15.5870   19.4500 O.co2     1 GCP1749     0.0000 
     13 O5'        19.9770   17.2680   18.0510 O.3       1 GCP1749     0.0000 
     14 C5'        20.5600   17.0480   16.7670 C.3       1 GCP1749     0.0000 
     15 C4'        20.7680   18.3550   16.0420 C.3       1 GCP1749     0.0000 
     16 O4'        19.4930   18.8430   15.5620 O.3       1 GCP1749     0.0000 
     17 C3'        21.3950   19.4840   16.8530 C.3       1 GCP1749     0.0000 
     18 O3'        22.2890   20.2330   16.0330 O.3       1 GCP1749     0.0000 
     19 C2'        20.1850   20.3200   17.2620 C.3       1 GCP1749     0.0000 
     20 O2'        20.5190   21.6820   17.4390 O.3       1 GCP1749     0.0000 
     21 C1'        19.2620   20.1430   16.0560 C.3       1 GCP1749     0.0000 
     22 N9         17.8400   20.2460   16.3720 N.pl3     1 GCP1749     0.0000 
     23 C8         17.1040   19.3930   17.1610 C.2       1 GCP1749     0.0000 
     24 N7         15.8460   19.7300   17.2430 N.2       1 GCP1749     0.0000 
     25 C5         15.7480   20.8770   16.4690 C.2       1 GCP1749     0.0000 
     26 C6         14.6260   21.6940   16.1730 C.2       1 GCP1749     0.0000 
     27 O6         13.4450   21.5450   16.5240 O.2       1 GCP1749     0.0000 
     28 N1         14.9780   22.7670   15.3630 N.am      1 GCP1749     0.0000 
     29 C2         16.2370   23.0020   14.8660 C.2       1 GCP1749     0.0000 
     30 N2         16.3830   24.0720   14.0810 N.pl3     1 GCP1749     0.0000 
     31 N3         17.2830   22.2400   15.1190 N.2       1 GCP1749     0.0000 
     32 C4         16.9710   21.2080   15.9270 C.2       1 GCP1749     0.0000 
     33 H          21.1180   13.4268   16.9232 H         1 GCP1749     0.0000 
     34 H          21.7920   13.6290   18.5495 H         1 GCP1749     0.0000 
     35 H          19.9194   16.4068   16.1394 H         1 GCP1749     0.0000 
     36 H          21.5368   16.5437   16.8503 H         1 GCP1749     0.0000 
     37 H          21.4130   18.1755   15.1710 H         1 GCP1749     0.0000 
     38 H          21.8324   19.0738   17.7155 H         1 GCP1749     0.0000 
     39 H          19.7277   19.8600   18.0930 H         1 GCP1749     0.0000 
     40 H          19.5386   20.8756   15.3136 H         1 GCP1749     0.0000 
     41 H          17.5248   18.6052   17.6100 H         1 GCP1749     0.0000 
     42 H          14.2056   23.4589   15.1109 H         1 GCP1749     0.0000 
     43 H          17.3094   24.2521   13.7504 H         1 GCP1749     0.0000 
     44 H          15.5528   24.5972   13.8942 H         1 GCP1749     0.0000 
     45 H          23.0669   20.4446   16.6246 H         1 GCP1749     0.0000 
     46 H          19.6801   22.1130   17.7713 H         1 GCP1749     0.0000 
@<TRIPOS>BOND
     1    2    1 ar   
     2    3    1 ar   
     3    4    1 ar   
     4    5    1 1    
     5    6    5 1    
     6   33    5 1    
     7   34    5 1    
     8    7    6 ar   
     9    8    6 ar   
    10    9    6 1    
    11   10    9 1    
    12   11   10 ar   
    13   12   10 ar   
    14   13   10 1    
    15   14   13 1    
    16   15   14 1    
    17   35   14 1    
    18   36   14 1    
    19   16   15 1    
    20   17   15 1    
    21   37   15 1    
    22   21   16 1    
    23   18   17 1    
    24   19   17 1    
    25   38   17 1    
    26   45   18 1    
    27   20   19 1    
    28   21   19 1    
    29   39   19 1    
    30   46   20 1    
    31   22   21 1    
    32   40   21 1    
    33   23   22 1    
    34   32   22 1    
    35   24   23 2    
    36   41   23 1    
    37   25   24 1    
    38   26   25 1    
    39   32   25 2    
    40   27   26 2    
    41   28   26 am   
    42   29   28 1    
    43   42   28 1    
    44   30   29 1    
    45   31   29 2    
    46   43   30 1    
    47   44   30 1    
    48   32   31 1    
@<TRIPOS>SUBSTRUCTURE
     1 GCP1749     1 GROUP   
@<TRIPOS>SET

