#    Name: 3baa_3BA_2_INTS_M
#    Modification time : Mon Mar 24 19:12:52 2014

@<TRIPOS>MOLECULE
3baa_3BA_2_INTS_M
   71     0     9     0     0
SMALL
NO_CHARGES


@<TRIPOS>ATOM
      1 N          17.6345   35.2970   52.1185 N.am      2 SEC2        0.0000 
      2 N          18.3810   34.1990   51.4720 N.am      8 SEL2        0.0000 
      3 N          16.8880   36.3950   52.7650 N.am      5 SEP2        0.0000 
      4 CA         19.0300   33.6125   53.3815 C.3       3 GLC5        0.0000 
      5 CA         19.6980   34.5050   51.6090 C.3       9 GLL5        0.0000 
      6 CA         18.3620   32.7200   55.1540 C.3       6 GLP5        0.0000 
      7 CA         18.3995   35.1450   52.8585 C.3       3 GLC5        0.0000 
      8 CA         17.1010   35.7850   54.1080 C.3       6 GLP5        0.0000 
      9 CA         20.4005   37.4685   50.8485 C.3       3 GLC5        0.0000 
     10 CA         21.3240   38.3940   52.6680 C.3       9 GLL5        0.0000 
     11 CA         19.4770   36.5430   49.0290 C.3       6 GLP5        0.0000 
     12 CA         20.6850   39.4925   50.9990 C.3       3 GLC5        0.0000 
     13 CA         20.0460   40.5910   49.3300 C.3       6 GLP5        0.0000 
     14 CA         19.2095   35.8450   53.3370 C.3       3 GLC5        0.0000 
     15 CA         21.3180   35.9050   52.5660 C.3       9 GLL5        0.0000 
     16 CA         18.9350   36.4320   54.4230 C.3       3 GLC5        0.0000 
     17 CA         20.7690   37.0790   54.7380 C.3       9 GLL5        0.0000 
     18 CA         22.4585   37.3015   56.1670 C.3       3 GLC5        0.0000 
     19 CA         24.1480   37.5240   57.5960 C.3       6 GLP5        0.0000 
     20 CA         20.3515   38.2810   55.9640 C.3       3 GLC5        0.0000 
     21 CA         19.9340   39.4830   57.1900 C.3       6 GLP5        0.0000 
     22 CA         20.6500   36.3350   56.6050 C.3       3 GLC5        0.0000 
     23 CA         20.5310   35.5910   58.4720 C.3       6 GLP5        0.0000 
     24 CA         26.1400   33.9160   51.8680 C.3       3 GLC5        0.0000 
     25 CA         24.5390   33.8280   50.6130 C.3       9 GLL5        0.0000 
     26 CA         27.7410   34.0040   53.1230 C.3       6 GLP5        0.0000 
     27 CA         23.7155   33.2670   52.5295 C.3       3 GLC5        0.0000 
     28 CA         22.8920   32.7060   54.4460 C.3       6 GLP5        0.0000 
     29 CA         24.8370   37.2680   47.6170 C.3       3 GLC5        0.0000 
     30 CA         24.2860   36.3380   49.3950 C.3       9 GLL5        0.0000 
     31 CA         25.3880   38.1980   45.8390 C.3       6 GLP5        0.0000 
     32 CA         26.2275   38.3260   48.9595 C.3       3 GLC5        0.0000 
     33 CA         24.7390   37.5700   49.8070 C.3       9 GLL5        0.0000 
     34 CA         27.7160   39.0820   48.1120 C.3       6 GLP5        0.0000 
     35 CA         17.5270   34.4690   52.3915 C.3       3 GLC5        0.0000 
     36 CA         17.9530   33.1530   50.6750 C.3       9 GLL5        0.0000 
     37 N          18.4495   35.9745   52.5835 N.am      2 SEC2        0.0000 
     38 N          20.0110   35.5540   52.4020 N.am      8 SEL2        0.0000 
     39 O          15.5030   34.0895   51.2070 O.2       1 ALC1        0.0000 
     40 O          16.5730   32.9220   50.5920 O.2       7 ALL1        0.0000 
     41 O          14.4330   35.2570   51.8220 O.2       4 ALP1        0.0000 
     42 O          15.6865   31.4760   50.4015 O.2       1 ALC1        0.0000 
     43 O          14.8000   30.0300   50.2110 O.2       4 ALP1        0.0000 
     44 CA         22.7225   35.3815   54.7150 C.3       3 GLC5        0.0000 
     45 CA         23.1160   37.1500   53.8960 C.3       9 GLL5        0.0000 
     46 CA         22.3290   33.6130   55.5340 C.3       6 GLP5        0.0000 
     47 CA         23.6320   37.3370   55.7460 C.3       3 GLC5        0.0000 
     48 N          17.0445   29.7945   48.4365 N.am      2 SEC2        0.0000 
     49 N          17.3370   31.1610   48.6500 N.am      8 SEL2        0.0000 
     50 N          16.7520   28.4280   48.2230 N.am      5 SEP2        0.0000 
     51 O          19.3510   29.2520   47.7225 O.2       1 ALC1        0.0000 
     52 O          19.4960   30.3530   48.7230 O.2       7 ALL1        0.0000 
     53 O          19.2060   28.1510   46.7220 O.2       4 ALP1        0.0000 
     54 N          21.9560   35.7040   48.2600 N.am      2 SEC2        0.0000 
     55 N          23.1230   36.4770   48.6430 N.am      8 SEL2        0.0000 
     56 N          20.7890   34.9310   47.8770 N.am      5 SEP2        0.0000 
     57 CA         21.1720   39.0078   54.7668 C.3       3 GLC5        0.0000 
     58 CA         21.6360   37.1110   53.4610 C.3       9 GLL5        0.0000 
     59 CA         20.8640   40.2630   56.4690 C.3       6 GLP5        0.0000 
     60 CA         21.4401   32.9204   52.4744 C.3       3 GLC5        0.0000 
     61 CA         22.0580   34.1660   51.1510 C.3       9 GLL5        0.0000 
     62 CA         21.8050   31.8280   53.8400 C.3       6 GLP5        0.0000 
     63 CA         21.7260   35.2032   54.7049 C.3       3 GLC5        0.0000 
     64 CA         24.4402   35.0343   47.5840 C.3       3 GLC5        0.0000 
     65 CA         24.8830   34.9930   49.6690 C.3       9 GLL5        0.0000 
     66 CA         24.2960   34.4030   45.6360 C.3       6 GLP5        0.0000 
     67 CA         26.3182   35.3377   48.5420 C.3       3 GLC5        0.0000 
     68 CA         28.0520   35.0100   47.5520 C.3       6 GLP5        0.0000 
     69 CA         18.4139   31.8533   51.9202 C.3       3 GLC5        0.0000 
     70 CA         20.2690   32.6730   50.1120 C.3       9 GLL5        0.0000 
     71 CA         18.0600   30.8720   53.4840 C.3       6 GLP5        0.0000 
@<TRIPOS>BOND
@<TRIPOS>SUBSTRUCTURE
     1 ALC1       39 GROUP        1 X    ALC  0     ROOT ALC X 1
     2 SEC2        1 GROUP        1 X    SEC  0     **** SEC X 2
     3 GLC5        4 GROUP        1 X    GLC  0     **** GLC X 6
     4 ALP1       41 GROUP        1 Y    ALP  0     ROOT ALP Y 8
     5 SEP2        3 GROUP        1 Y    SEP  0     **** SEP Y 9
     6 GLP5        6 GROUP        1 Y    GLP  0     **** GLP Y 13
     7 ALL1       40 GROUP        1 Z    ALL  0     ROOT ALL Z 15
     8 SEL2        2 GROUP        1 Z    SEL  0     **** SEL Z 16
     9 GLL5        5 GROUP        1 Z    GLL  0     **** GLL Z 20
@<TRIPOS>SET

