#    Name: 3baa_3BA_2_ligand
#    Modification time : Mon Mar 24 19:12:52 2014

@<TRIPOS>MOLECULE
3baa_3BA_2_ligand
   48    50     1     0     0
SMALL
NO_CHARGES


@<TRIPOS>ATOM
      1 N1         18.3810   34.1990   51.4720 N.ar      1 3BA501      0.0000 
      2 C3         20.2690   32.6730   50.1120 C.ar      1 3BA501      0.0000 
      3 N2         22.3360   35.2360   51.9630 N.ar      1 3BA501      0.0000 
      4 C4         19.6980   34.5050   51.6090 C.ar      1 3BA501      0.0000 
      5 C9         21.3240   38.3940   52.6680 C.3       1 3BA501      0.0000 
      6 C8         21.6360   37.1110   53.4610 C.3       1 3BA501      0.0000 
      7 C7         21.3180   35.9050   52.5660 C.ar      1 3BA501      0.0000 
      8 C6         22.0580   34.1660   51.1510 C.ar      1 3BA501      0.0000 
      9 C5         20.7050   33.7550   50.9370 C.ar      1 3BA501      0.0000 
     10 C10        20.7690   37.0790   54.7380 C.3       1 3BA501      0.0000 
     11 C12        18.4950   31.2300   49.0650 C.2       1 3BA501      0.0000 
     12 C13        24.5390   33.8280   50.6130 C.3       1 3BA501      0.0000 
     13 C14        24.8830   34.9930   49.6690 C.3       1 3BA501      0.0000 
     14 C15        24.2860   36.3380   49.3950 C.2       1 3BA501      0.0000 
     15 C16        22.8930   37.7770   48.6090 C.2       1 3BA501      0.0000 
     16 C17        24.7390   37.5700   49.8070 C.2       1 3BA501      0.0000 
     17 C1         17.9530   33.1530   50.6750 C.ar      1 3BA501      0.0000 
     18 C2         18.8960   32.3590   49.9640 C.ar      1 3BA501      0.0000 
     19 N3         20.0110   35.5540   52.4020 N.ar      1 3BA501      0.0000 
     20 N4         16.5730   32.9220   50.5920 N.pl3     1 3BA501      0.0000 
     21 C11        23.1160   37.1500   53.8960 C.3       1 3BA501      0.0000 
     22 O1         17.3370   31.1610   48.6500 O.2       1 3BA501      0.0000 
     23 N5         19.4960   30.3530   48.7230 N.am      1 3BA501      0.0000 
     24 N6         23.1150   33.4810   50.5250 N.pl3     1 3BA501      0.0000 
     25 N7         23.1230   36.4770   48.6430 N.2       1 3BA501      0.0000 
     26 N8         23.8440   38.4800   49.2990 N.pl3     1 3BA501      0.0000 
     27 H          20.9741   32.1113   49.6154 H         1 3BA501      0.0000 
     28 H          24.8046   34.1281   51.6325 H         1 3BA501      0.0000 
     29 H          25.1660   32.9727   50.3385 H         1 3BA501      0.0000 
     30 H          25.0339   34.4720   48.5893 H         1 3BA501      0.0000 
     31 H          26.0632   35.1843   49.8435 H         1 3BA501      0.0000 
     32 H          22.1344   38.2151   48.1489 H         1 3BA501      0.0000 
     33 H          25.4989   37.7495   50.3255 H         1 3BA501      0.0000 
     34 H          15.9905   33.5434   51.1161 H         1 3BA501      0.0000 
     35 H          16.2891   32.1557   50.0158 H         1 3BA501      0.0000 
     36 H          19.2266   29.5803   48.1483 H         1 3BA501      0.0000 
     37 H          20.4065   30.5641   49.0787 H         1 3BA501      0.0000 
     38 H          22.8879   32.6363   49.9320 H         1 3BA501      0.0000 
     39 H          23.8806   39.4234   49.4080 H         1 3BA501      0.0000 
     40 H          21.5088   39.2169   53.2053 H         1 3BA501      0.0000 
     41 H          21.8733   38.4585   51.8349 H         1 3BA501      0.0000 
     42 H          20.3642   38.4347   52.3902 H         1 3BA501      0.0000 
     43 H          20.9422   36.2593   55.2840 H         1 3BA501      0.0000 
     44 H          20.9469   37.8669   55.3276 H         1 3BA501      0.0000 
     45 H          19.7922   37.0877   54.5240 H         1 3BA501      0.0000 
     46 H          23.7328   37.1997   53.1105 H         1 3BA501      0.0000 
     47 H          23.3126   37.9423   54.4736 H         1 3BA501      0.0000 
     48 H          23.3712   36.3362   54.4181 H         1 3BA501      0.0000 
@<TRIPOS>BOND
     1    4    1 ar   
     2   17    1 ar   
     3    9    2 ar   
     4   18    2 ar   
     5   27    2 1    
     6    7    3 ar   
     7    8    3 ar   
     8    9    4 ar   
     9   19    4 ar   
    10    6    5 1    
    11   40    5 1    
    12   41    5 1    
    13   42    5 1    
    14    7    6 1    
    15   10    6 1    
    16   21    6 1    
    17   19    7 ar   
    18    9    8 ar   
    19   24    8 1    
    20   43   10 1    
    21   44   10 1    
    22   45   10 1    
    23   18   11 1    
    24   22   11 2    
    25   23   11 am   
    26   13   12 1    
    27   24   12 1    
    28   28   12 1    
    29   29   12 1    
    30   14   13 1    
    31   30   13 1    
    32   31   13 1    
    33   16   14 2    
    34   25   14 1    
    35   25   15 2    
    36   26   15 1    
    37   32   15 1    
    38   26   16 1    
    39   33   16 1    
    40   18   17 ar   
    41   20   17 1    
    42   34   20 1    
    43   35   20 1    
    44   46   21 1    
    45   47   21 1    
    46   48   21 1    
    47   36   23 1    
    48   37   23 1    
    49   38   24 1    
    50   39   26 1    
@<TRIPOS>SUBSTRUCTURE
     1 3BA501      1 GROUP   
@<TRIPOS>SET

