#    Name: 2bka_NDP_1_INTS_M
#    Modification time : Mon Mar 24 21:07:39 2014

@<TRIPOS>MOLECULE
2bka_NDP_1_INTS_M
  103     0    12     0     0
SMALL
NO_CHARGES


@<TRIPOS>ATOM
      1 N          17.6430   48.8065   54.7990 N.am      2 SEC2        0.0000 
      2 N          16.4080   48.2330   55.1710 N.am     10 SEL2        0.0000 
      3 N          18.8780   49.3800   54.4270 N.am      6 SEP2        0.0000 
      4 CA         12.7105   50.5395   50.5645 C.3       4 GLC5        0.0000 
      5 CA         13.3350   50.9270   52.4580 C.3      12 GLL5        0.0000 
      6 CA         12.0860   50.1520   48.6710 C.3       8 GLP5        0.0000 
      7 N          11.4590   50.0010   51.1410 N.am      2 SEC2        0.0000 
      8 N          12.0170   51.1860   51.9780 N.am     10 SEL2        0.0000 
      9 N          10.9010   48.8160   50.3040 N.am      6 SEP2        0.0000 
     10 O          14.9110   54.1020   53.1800 O.2       1 ALC1        0.0000 
     11 O          14.4280   53.1150   52.3380 O.2       9 ALL1        0.0000 
     12 O          15.3940   55.0890   54.0220 O.2       5 ALP1        0.0000 
     13 CA         11.4430   52.8660   50.6385 C.3       4 GLC5        0.0000 
     14 CA         11.5900   52.4490   52.4620 C.3      12 GLL5        0.0000 
     15 CA         11.2960   53.2830   48.8150 C.3       8 GLP5        0.0000 
     16 CA          7.8025   55.6540   53.8410 C.3       4 GLC5        0.0000 
     17 CA          7.0000   53.7630   53.1490 C.3      12 GLL5        0.0000 
     18 CA          8.6050   57.5450   54.5330 C.3       8 GLP5        0.0000 
     19 CA          8.4610   56.3805   53.1830 C.3       4 GLC5        0.0000 
     20 CA          8.3170   55.2160   51.8330 C.3      12 GLL5        0.0000 
     21 CA         10.2765   53.3045   50.7265 C.3       4 GLC5        0.0000 
     22 CA          9.2570   53.3260   52.6380 C.3      12 GLL5        0.0000 
     23 CA          8.0735   51.7955   51.5145 C.3       4 GLC5        0.0000 
     24 CA          6.8900   50.2650   50.3910 C.3       8 GLP5        0.0000 
     25 N          18.7050   47.3235   52.3965 N.am      2 SEC2        0.0000 
     26 N          17.3380   46.7190   52.5330 N.am     10 SEL2        0.0000 
     27 N          20.0720   47.9280   52.2600 N.am      6 SEP2        0.0000 
     28 N          18.3595   46.1570   51.6715 N.am      2 SEC2        0.0000 
     29 N          19.3810   45.5950   50.8100 N.am      6 SEP2        0.0000 
     30 N          17.2605   47.9710   51.8110 N.am      2 SEC2        0.0000 
     31 N          17.1830   49.2230   51.0890 N.am      6 SEP2        0.0000 
     32 CA         17.5655   46.4375   50.2395 C.3       4 GLC5        0.0000 
     33 CA         15.3710   46.1030   50.3940 C.3      12 GLL5        0.0000 
     34 CA         19.7600   46.7720   50.0850 C.3       8 GLP5        0.0000 
     35 CA         11.6480   46.3550   50.3055 C.3       4 GLC5        0.0000 
     36 CA         13.0730   45.0860   49.8440 C.3      12 GLL5        0.0000 
     37 CA         10.2230   47.6240   50.7670 C.3       8 GLP5        0.0000 
     38 N          11.1565   44.5895   48.1285 N.am      2 SEC2        0.0000 
     39 N          12.2410   45.2640   48.6880 N.am     10 SEL2        0.0000 
     40 N          10.0720   43.9150   47.5690 N.am      6 SEP2        0.0000 
     41 O          11.8495   46.5620   48.5160 O.2       1 ALC1        0.0000 
     42 O          12.2410   45.2640   48.6880 O.2       9 ALL1        0.0000 
     43 O          11.4580   47.8600   48.3440 O.2       5 ALP1        0.0000 
     44 CA         11.4500   43.0235   49.0160 C.3       4 GLC5        0.0000 
     45 CA         13.0540   43.6160   50.3640 C.3      12 GLL5        0.0000 
     46 CA          9.8460   42.4310   47.6680 C.3       8 GLP5        0.0000 
     47 N          11.6615   41.7115   50.1020 N.am      2 SEC2        0.0000 
     48 N          11.7710   43.0410   50.2100 N.am     10 SEL2        0.0000 
     49 N          11.5520   40.3820   49.9940 N.am      6 SEP2        0.0000 
     50 N          10.9215   43.4780   48.8895 N.am      2 SEC2        0.0000 
     51 CA         15.3330   43.7360   47.9115 C.3       4 GLC5        0.0000 
     52 CA         14.0990   43.0230   49.4600 C.3      12 GLL5        0.0000 
     53 CA         16.5670   44.4490   46.3630 C.3       8 GLP5        0.0000 
     54 CA         17.0200   42.1755   51.4645 C.3       4 GLC5        0.0000 
     55 CA         15.1900   41.8500   51.4580 C.3      12 GLL5        0.0000 
     56 CA         18.8500   42.5010   51.4710 C.3       8 GLP5        0.0000 
     57 N          17.9765   39.0475   53.4730 N.am      2 SEC2        0.0000 
     58 N          16.7410   39.6800   53.8920 N.am     10 SEL2        0.0000 
     59 N          19.2120   38.4150   53.0540 N.am      6 SEP2        0.0000 
     60 CA         16.8765   37.8790   51.9430 C.3       4 GLC5        0.0000 
     61 CA         15.7300   39.4360   51.1930 C.3      12 GLL5        0.0000 
     62 CA         18.0230   36.3220   52.6930 C.3       8 GLP5        0.0000 
     63 NZ         14.5250   55.5655   56.7565 N.4       3 LYC4        0.0000 
     64 NZ         13.8830   54.4720   56.0730 N.4      11 LYL4        0.0000 
     65 NZ         14.6070   57.8600   57.4420 N.4       7 LYP4        0.0000 
     66 N          14.6385   54.7805   55.0475 N.am      2 SEC2        0.0000 
     67 N          13.8830   54.4720   56.0730 N.am     10 SEL2        0.0000 
     68 N          15.3940   55.0890   54.0220 N.am      6 SEP2        0.0000 
     69 N          14.5250   55.5655   56.7565 N.am      2 SEC2        0.0000 
     70 N          15.1670   56.6590   57.4400 N.am      6 SEP2        0.0000 
     71 NZ         10.5520   56.1785   55.3675 N.4       3 LYC4        0.0000 
     72 NZ         11.9600   55.9430   55.4510 N.4      11 LYL4        0.0000 
     73 NZ          8.3870   55.6020   56.0160 N.4       7 LYP4        0.0000 
     74 NZ         12.6900   56.9935   56.1600 N.4       3 LYC4        0.0000 
     75 N          10.5520   56.1785   55.3675 N.am      2 SEC2        0.0000 
     76 N          11.9600   55.9430   55.4510 N.am     10 SEL2        0.0000 
     77 N           9.1440   56.4140   55.2840 N.am      6 SEP2        0.0000 
     78 N          12.6900   56.9935   56.1600 N.am      2 SEC2        0.0000 
     79 N          13.4200   58.0440   56.8690 N.am      6 SEP2        0.0000 
     80 NZ         10.2335   54.1285   56.4780 N.4       3 LYC4        0.0000 
     81 NZ         11.5440   53.6910   56.3080 N.4      11 LYL4        0.0000 
     82 N          10.2335   54.1285   56.4780 N.am      2 SEC2        0.0000 
     83 N          11.5440   53.6910   56.3080 N.am     10 SEL2        0.0000 
     84 N           8.9230   54.5660   56.6480 N.am      6 SEP2        0.0000 
     85 CA         14.3995   52.3695   51.0602 C.3       4 GLC5        0.0000 
     86 CA         13.7530   52.1730   53.2290 C.3      12 GLL5        0.0000 
     87 CA         15.2550   53.1890   49.2770 C.3       8 GLP5        0.0000 
     88 CA         15.4939   51.2054   53.4364 C.3       4 GLC5        0.0000 
     89 CA         17.3910   51.1910   53.8200 C.3       8 GLP5        0.0000 
     90 CA          6.2130   52.1557   52.4603 C.3       4 GLC5        0.0000 
     91 CA          8.1220   52.9120   53.2680 C.3      12 GLL5        0.0000 
     92 CA          4.8650   50.9740   51.7120 C.3       8 GLP5        0.0000 
     93 CA         16.1352   45.5367   48.6303 C.3       4 GLC5        0.0000 
     94 CA         14.5100   45.3600   49.4250 C.3      12 GLL5        0.0000 
     95 CA         17.3300   45.3420   47.3510 C.3       8 GLP5        0.0000 
     96 CA         13.8805   39.2433   48.4327 C.3       4 GLC5        0.0000 
     97 CA         15.5160   39.5170   49.7690 C.3      12 GLL5        0.0000 
     98 CA         12.5140   38.3720   47.3820 C.3       8 GLP5        0.0000 
     99 CA         16.6775   39.9767   48.1657 C.3       4 GLC5        0.0000 
    100 CA         14.9780   40.7120   49.1980 C.3      12 GLL5        0.0000 
    101 CA         18.1080   39.8390   46.8480 C.3       8 GLP5        0.0000 
    102 CA         17.4264   40.4080   51.1155 C.3       4 GLC5        0.0000 
    103 CA         19.2390   41.0370   51.5440 C.3       8 GLP5        0.0000 
@<TRIPOS>BOND
@<TRIPOS>SUBSTRUCTURE
     1 ALC1       10 GROUP        1 X    ALC  0     ROOT ALC X 1
     2 SEC2        1 GROUP        1 X    SEC  0     **** SEC X 2
     3 LYC4       63 GROUP        1 X    LYC  0     **** LYC X 4
     4 GLC5        4 GROUP        1 X    GLC  0     **** GLC X 6
     5 ALP1       12 GROUP        1 Y    ALP  0     ROOT ALP Y 8
     6 SEP2        3 GROUP        1 Y    SEP  0     **** SEP Y 9
     7 LYP4       65 GROUP        1 Y    LYP  0     **** LYP Y 11
     8 GLP5        6 GROUP        1 Y    GLP  0     **** GLP Y 13
     9 ALL1       11 GROUP        1 Z    ALL  0     ROOT ALL Z 15
    10 SEL2        2 GROUP        1 Z    SEL  0     **** SEL Z 16
    11 LYL4       64 GROUP        1 Z    LYL  0     **** LYL Z 18
    12 GLL5        5 GROUP        1 Z    GLL  0     **** GLL Z 20
@<TRIPOS>SET

