#    Name: 2bka_NDP_1_ligand
#    Modification time : Mon Mar 24 21:07:39 2014

@<TRIPOS>MOLECULE
2bka_NDP_1_ligand
   74    78     1     0     0
SMALL
NO_CHARGES


@<TRIPOS>ATOM
      1 PA         15.0630   48.0590   54.6180 P.3       1 NDP506      0.0000 
      2 O1A        13.9600   47.8740   55.5850 O.co2     1 NDP506      0.0000 
      3 O2A        16.4080   48.2330   55.1710 O.co2     1 NDP506      0.0000 
      4 O5B        14.8400   49.3820   53.7690 O.3       1 NDP506      0.0000 
      5 C5B        13.5460   49.6060   53.2950 C.3       1 NDP506      0.0000 
      6 C4B        13.3350   50.9270   52.4580 C.3       1 NDP506      0.0000 
      7 O4B        12.0170   51.1860   51.9780 O.3       1 NDP506      0.0000 
      8 C3B        13.7530   52.1730   53.2290 C.3       1 NDP506      0.0000 
      9 O3B        14.4280   53.1150   52.3380 O.3       1 NDP506      0.0000 
     10 C2B        12.4470   52.6920   53.6650 C.3       1 NDP506      0.0000 
     11 O2B        12.4140   54.0840   54.0560 O.3       1 NDP506      0.0000 
     12 C1B        11.5900   52.4490   52.4620 C.3       1 NDP506      0.0000 
     13 N9A        10.2000   52.3830   52.9040 N.pl3     1 NDP506      0.0000 
     14 C8A         9.5610   51.4150   53.6810 C.2       1 NDP506      0.0000 
     15 N7A         8.3150   51.7090   53.9130 N.2       1 NDP506      0.0000 
     16 C5A         8.1220   52.9120   53.2680 C.ar      1 NDP506      0.0000 
     17 C6A         7.0000   53.7630   53.1490 C.ar      1 NDP506      0.0000 
     18 N6A         5.8470   53.4770   53.7310 N.pl3     1 NDP506      0.0000 
     19 N1A         7.1380   54.9100   52.4230 N.ar      1 NDP506      0.0000 
     20 C2A         8.3170   55.2160   51.8330 C.ar      1 NDP506      0.0000 
     21 N3A         9.4280   54.4710   51.9020 N.ar      1 NDP506      0.0000 
     22 C4A         9.2570   53.3260   52.6380 C.ar      1 NDP506      0.0000 
     23 O3         15.0430   46.9500   53.4580 O.3       1 NDP506      0.0000 
     24 PN         16.1430   45.9500   52.8990 P.3       1 NDP506      0.0000 
     25 O1N        16.3780   44.8510   53.8800 O.co2     1 NDP506      0.0000 
     26 O2N        17.3380   46.7190   52.5330 O.co2     1 NDP506      0.0000 
     27 O5D        15.3950   45.3980   51.6150 O.3       1 NDP506      0.0000 
     28 C5D        15.3710   46.1030   50.3940 C.3       1 NDP506      0.0000 
     29 C4D        14.5100   45.3600   49.4250 C.3       1 NDP506      0.0000 
     30 O4D        15.1090   44.0340   49.3060 O.3       1 NDP506      0.0000 
     31 C3D        13.0730   45.0860   49.8440 C.3       1 NDP506      0.0000 
     32 O3D        12.2410   45.2640   48.6880 O.3       1 NDP506      0.0000 
     33 C2D        13.0540   43.6160   50.3640 C.3       1 NDP506      0.0000 
     34 O2D        11.7710   43.0410   50.2100 O.3       1 NDP506      0.0000 
     35 C1D        14.0990   43.0230   49.4600 C.3       1 NDP506      0.0000 
     36 N1N        14.6710   41.8330   50.0950 N.pl3     1 NDP506      0.0000 
     37 C2N        15.1900   41.8500   51.4580 C.2       1 NDP506      0.0000 
     38 C3N        15.6930   40.6460   52.0170 C.2       1 NDP506      0.0000 
     39 C7N        16.2910   40.6430   53.3960 C.2       1 NDP506      0.0000 
     40 O7N        16.7410   39.6800   53.8920 O.2       1 NDP506      0.0000 
     41 N7N        16.2930   41.8530   54.0760 N.am      1 NDP506      0.0000 
     42 C4N        15.7300   39.4360   51.1930 C.3       1 NDP506      0.0000 
     43 C5N        15.5160   39.5170   49.7690 C.2       1 NDP506      0.0000 
     44 C6N        14.9780   40.7120   49.1980 C.2       1 NDP506      0.0000 
     45 P2B        12.4790   54.5800   55.5920 P.3       1 NDP506      0.0000 
     46 O1X        13.8830   54.4720   56.0730 O.co2     1 NDP506      0.0000 
     47 O2X        11.9600   55.9430   55.4510 O.co2     1 NDP506      0.0000 
     48 O3X        11.5440   53.6910   56.3080 O.co2     1 NDP506      0.0000 
     49 H          12.7884   49.6540   54.1222 H         1 NDP506      0.0000 
     50 H          13.1809   48.7744   52.6349 H         1 NDP506      0.0000 
     51 H          14.0372   50.8678   51.5927 H         1 NDP506      0.0000 
     52 H          14.3286   51.8823   54.0500 H         1 NDP506      0.0000 
     53 H          12.0647   52.0434   54.4511 H         1 NDP506      0.0000 
     54 H          11.7469   53.2197   51.7662 H         1 NDP506      0.0000 
     55 H          10.0478   50.6095   53.9965 H         1 NDP506      0.0000 
     56 H           5.8339   52.6559   54.3017 H         1 NDP506      0.0000 
     57 H           5.0931   54.1078   53.5475 H         1 NDP506      0.0000 
     58 H           8.3595   56.1309   51.2651 H         1 NDP506      0.0000 
     59 H          16.3750   46.2011   49.9603 H         1 NDP506      0.0000 
     60 H          14.9618   47.1146   50.5156 H         1 NDP506      0.0000 
     61 H          14.5227   45.8261   48.4659 H         1 NDP506      0.0000 
     62 H          12.8258   45.7301   50.6431 H         1 NDP506      0.0000 
     63 H          13.4292   43.6423   51.3496 H         1 NDP506      0.0000 
     64 H          13.6498   42.7832   48.5280 H         1 NDP506      0.0000 
     65 H          15.1839   42.7093   51.9786 H         1 NDP506      0.0000 
     66 H          16.7242   41.8500   54.9783 H         1 NDP506      0.0000 
     67 H          15.8631   42.6232   53.6049 H         1 NDP506      0.0000 
     68 H          14.9878   38.6819   51.6370 H         1 NDP506      0.0000 
     69 H          16.7281   38.9046   51.3881 H         1 NDP506      0.0000 
     70 H          15.7478   38.7272   49.1806 H         1 NDP506      0.0000 
     71 H          14.8095   40.7993   48.2201 H         1 NDP506      0.0000 
     72 H          14.8007   53.8201   52.9413 H         1 NDP506      0.0000 
     73 H          11.6423   46.0318   48.9160 H         1 NDP506      0.0000 
     74 H          11.4114   43.4338   49.3636 H         1 NDP506      0.0000 
@<TRIPOS>BOND
     1    2    1 ar   
     2    3    1 ar   
     3    4    1 1    
     4   23    1 1    
     5    5    4 1    
     6    6    5 1    
     7   49    5 1    
     8   50    5 1    
     9    7    6 1    
    10    8    6 1    
    11   51    6 1    
    12   12    7 1    
    13    9    8 1    
    14   10    8 1    
    15   52    8 1    
    16   72    9 1    
    17   11   10 1    
    18   12   10 1    
    19   53   10 1    
    20   45   11 1    
    21   13   12 1    
    22   54   12 1    
    23   14   13 1    
    24   22   13 1    
    25   15   14 2    
    26   55   14 1    
    27   16   15 1    
    28   17   16 ar   
    29   22   16 ar   
    30   18   17 1    
    31   19   17 ar   
    32   56   18 1    
    33   57   18 1    
    34   20   19 ar   
    35   21   20 ar   
    36   58   20 1    
    37   22   21 ar   
    38   24   23 1    
    39   25   24 ar   
    40   26   24 ar   
    41   27   24 1    
    42   28   27 1    
    43   29   28 1    
    44   59   28 1    
    45   60   28 1    
    46   30   29 1    
    47   31   29 1    
    48   61   29 1    
    49   35   30 1    
    50   32   31 1    
    51   33   31 1    
    52   62   31 1    
    53   73   32 1    
    54   34   33 1    
    55   35   33 1    
    56   63   33 1    
    57   74   34 1    
    58   36   35 1    
    59   64   35 1    
    60   37   36 1    
    61   44   36 1    
    62   38   37 2    
    63   65   37 1    
    64   39   38 1    
    65   42   38 1    
    66   40   39 2    
    67   41   39 am   
    68   66   41 1    
    69   67   41 1    
    70   43   42 1    
    71   68   42 1    
    72   69   42 1    
    73   44   43 2    
    74   70   43 1    
    75   71   44 1    
    76   46   45 ar   
    77   47   45 ar   
    78   48   45 ar   
@<TRIPOS>SUBSTRUCTURE
     1 NDP506      1 GROUP   
@<TRIPOS>SET

