#    Name: 3er9_3AT_1_INTS_M
#    Modification time : Tue Mar 25 02:23:25 2014

@<TRIPOS>MOLECULE
3er9_3AT_1_INTS_M
   55     0    12     0     0
SMALL
NO_CHARGES


@<TRIPOS>ATOM
      1 NZ         18.7255   19.0065   23.9180 N.4       3 LYC4        0.0000 
      2 NZ         17.9290   18.2940   25.0050 N.4      11 LYL4        0.0000 
      3 NZ         19.5220   19.7190   22.8310 N.4       7 LYP4        0.0000 
      4 N          18.7255   19.0065   23.9180 N.am      2 SEC2        0.0000 
      5 N          17.9290   18.2940   25.0050 N.am     10 SEL2        0.0000 
      6 N          19.5220   19.7190   22.8310 N.am      6 SEP2        0.0000 
      7 NZ         20.7515   16.8650   25.9675 N.4       3 LYC4        0.0000 
      8 NZ         19.4440   16.4100   25.8650 N.4      11 LYL4        0.0000 
      9 NZ         23.1090   17.2590   25.2570 N.4       7 LYP4        0.0000 
     10 N          19.7800   15.2700   26.2805 N.am      2 SEC2        0.0000 
     11 N          19.4440   16.4100   25.8650 N.am     10 SEL2        0.0000 
     12 N          20.1160   14.1300   26.6960 N.am      6 SEP2        0.0000 
     13 N          18.7660   16.4345   27.3160 N.am      2 SEC2        0.0000 
     14 N          18.0880   16.4590   28.7670 N.am      6 SEP2        0.0000 
     15 N          20.7515   16.8650   25.9675 N.am      2 SEC2        0.0000 
     16 N          22.0590   17.3200   26.0700 N.am      6 SEP2        0.0000 
     17 N          19.8715   13.0140   24.2465 N.am      2 SEC2        0.0000 
     18 N          18.8110   14.0790   23.6170 N.am     10 SEL2        0.0000 
     19 N          20.9320   11.9490   24.8760 N.am      6 SEP2        0.0000 
     20 N          19.4635   14.1045   25.1565 N.am      2 SEC2        0.0000 
     21 NZ         22.0175   15.8485   23.4935 N.4       3 LYC4        0.0000 
     22 NZ         21.0240   15.0640   22.9000 N.4      11 LYL4        0.0000 
     23 N          22.0175   15.8485   23.4935 N.am      2 SEC2        0.0000 
     24 N          21.0240   15.0640   22.9000 N.am     10 SEL2        0.0000 
     25 N          23.0110   16.6330   24.0870 N.am      6 SEP2        0.0000 
     26 NZ         17.2080   16.1910   18.6425 N.4       3 LYC4        0.0000 
     27 NZ         16.8890   15.5510   19.8830 N.4      11 LYL4        0.0000 
     28 NZ         16.7330   16.7740   16.3400 N.4       7 LYP4        0.0000 
     29 N          17.2080   16.1910   18.6425 N.am      2 SEC2        0.0000 
     30 N          16.8890   15.5510   19.8830 N.am     10 SEL2        0.0000 
     31 N          17.5270   16.8310   17.4020 N.am      6 SEP2        0.0000 
     32 CA         19.8290   14.3620   17.7000 C.3       4 GLC5        0.0000 
     33 CA         18.9450   13.2960   19.4280 C.3      12 GLL5        0.0000 
     34 CA         20.7130   15.4280   15.9720 C.3       8 GLP5        0.0000 
     35 O          16.7155   14.4175   10.7250 O.2       1 ALC1        0.0000 
     36 O          16.9190   14.5490   12.2370 O.2       9 ALL1        0.0000 
     37 O          16.5120   14.2860    9.2130 O.2       5 ALP1        0.0000 
     38 N          18.5235   13.1955   10.5060 N.am      2 SEC2        0.0000 
     39 N          18.3600   12.6620   11.8970 N.am     10 SEL2        0.0000 
     40 N          18.6870   13.7290    9.1150 N.am      6 SEP2        0.0000 
     41 CA         20.1035   11.2485   10.6350 C.3       4 GLC5        0.0000 
     42 CA         19.1030   11.6020   12.3330 C.3      12 GLL5        0.0000 
     43 CA         21.1040   10.8950    8.9370 C.3       8 GLP5        0.0000 
     44 CA         20.1540   13.1020   12.1320 C.3       4 GLC5        0.0000 
     45 CA         21.2050   14.6020   11.9310 C.3       8 GLP5        0.0000 
     46 CA         19.8550   13.3005   14.0160 C.3       4 GLC5        0.0000 
     47 CA         18.4850   12.1140   14.5790 C.3      12 GLL5        0.0000 
     48 CA         21.2250   14.4870   13.4530 C.3       8 GLP5        0.0000 
     49 CA         20.6805   13.6513   16.7007 C.3       4 GLC5        0.0000 
     50 CA         20.5680   11.3200   16.9110 C.3      12 GLL5        0.0000 
     51 CA         20.8708    9.9815   15.6677 C.3       4 GLC5        0.0000 
     52 CA         21.9440    8.7680   14.4550 C.3       8 GLP5        0.0000 
     53 CA         19.0557   14.4640   13.8155 C.3       4 GLC5        0.0000 
     54 CA         17.6840   13.2470   14.1500 C.3      12 GLL5        0.0000 
     55 CA         20.4410   15.5610   14.1890 C.3       8 GLP5        0.0000 
@<TRIPOS>BOND
@<TRIPOS>SUBSTRUCTURE
     1 ALC1       35 GROUP        1 X    ALC  0     ROOT ALC X 1
     2 SEC2        4 GROUP        1 X    SEC  0     **** SEC X 2
     3 LYC4        1 GROUP        1 X    LYC  0     **** LYC X 4
     4 GLC5       32 GROUP        1 X    GLC  0     **** GLC X 6
     5 ALP1       37 GROUP        1 Y    ALP  0     ROOT ALP Y 8
     6 SEP2        6 GROUP        1 Y    SEP  0     **** SEP Y 9
     7 LYP4        3 GROUP        1 Y    LYP  0     **** LYP Y 11
     8 GLP5       34 GROUP        1 Y    GLP  0     **** GLP Y 13
     9 ALL1       36 GROUP        1 Z    ALL  0     ROOT ALL Z 15
    10 SEL2        5 GROUP        1 Z    SEL  0     **** SEL Z 16
    11 LYL4        2 GROUP        1 Z    LYL  0     **** LYL Z 18
    12 GLL5       33 GROUP        1 Z    GLL  0     **** GLL Z 20
@<TRIPOS>SET

