#    Name: 3er9_3AT_1_ligand
#    Modification time : Tue Mar 25 02:23:25 2014

@<TRIPOS>MOLECULE
3er9_3AT_1_ligand
   42    44     1     0     0
SMALL
NO_CHARGES


@<TRIPOS>ATOM
      1 PG         18.3450   16.7740   24.7680 P.3       1 3AT800      0.0000 
      2 O1G        17.9290   18.2940   25.0050 O.co2     1 3AT800      0.0000 
      3 O2G        19.4440   16.4100   25.8650 O.co2     1 3AT800      0.0000 
      4 O3G        17.1080   15.8220   24.9880 O.co2     1 3AT800      0.0000 
      5 PB         19.4250   15.1600   22.8220 P.3       1 3AT800      0.0000 
      6 O1B        18.8110   14.0790   23.6170 O.co2     1 3AT800      0.0000 
      7 O2B        21.0240   15.0640   22.9000 O.co2     1 3AT800      0.0000 
      8 O3B        18.9690   16.6680   23.3010 O.3       1 3AT800      0.0000 
      9 PA         17.5680   14.5500   20.8970 P.3       1 3AT800      0.0000 
     10 O1A        16.7250   14.4260   22.0800 O.co2     1 3AT800      0.0000 
     11 O2A        16.8890   15.5510   19.8830 O.co2     1 3AT800      0.0000 
     12 O3A        19.0870   15.0500   21.2540 O.3       1 3AT800      0.0000 
     13 O5'        17.6780   13.1900   20.0460 O.3       1 3AT800      0.0000 
     14 C5'        18.9450   13.2960   19.4280 C.3       1 3AT800      0.0000 
     15 C4'        19.5850   12.0500   18.9170 C.3       1 3AT800      0.0000 
     16 O4'        18.6120   11.2100   18.2160 O.3       1 3AT800      0.0000 
     17 C3'        20.7280   12.4290   17.9480 C.3       1 3AT800      0.0000 
     18 C2'        20.5680   11.3200   16.9110 C.3       1 3AT800      0.0000 
     19 O2'        21.3140   10.1660   17.3100 O.3       1 3AT800      0.0000 
     20 C1'        19.0270   11.0700   16.8500 C.3       1 3AT800      0.0000 
     21 N9         18.3600   12.0880   15.9520 N.pl3     1 3AT800      0.0000 
     22 C8         17.5250   13.1570   16.2780 C.2       1 3AT800      0.0000 
     23 N7         17.1380   13.8250   15.2400 N.2       1 3AT800      0.0000 
     24 C5         17.6840   13.2470   14.1500 C.ar      1 3AT800      0.0000 
     25 C6         17.6570   13.4870   12.7340 C.ar      1 3AT800      0.0000 
     26 N6         16.9190   14.5490   12.2370 N.pl3     1 3AT800      0.0000 
     27 N1         18.3600   12.6620   11.8970 N.ar      1 3AT800      0.0000 
     28 C2         19.1030   11.6020   12.3330 C.ar      1 3AT800      0.0000 
     29 N3         19.1570   11.3420   13.6610 N.ar      1 3AT800      0.0000 
     30 C4         18.4850   12.1140   14.5790 C.ar      1 3AT800      0.0000 
     31 H          19.6875   13.7933   20.1325 H         1 3AT800      0.0000 
     32 H          18.9016   14.0335   18.5625 H         1 3AT800      0.0000 
     33 H          20.0264   11.5091   19.7391 H         1 3AT800      0.0000 
     34 H          21.6449   12.3368   18.4377 H         1 3AT800      0.0000 
     35 H          20.5265   13.3582   17.5180 H         1 3AT800      0.0000 
     36 H          20.8661   11.7150   15.9649 H         1 3AT800      0.0000 
     37 H          18.8802   10.0865   16.4921 H         1 3AT800      0.0000 
     38 H          17.2837   13.3419   17.2274 H         1 3AT800      0.0000 
     39 H          16.8656   15.3591   12.8208 H         1 3AT800      0.0000 
     40 H          16.5037   14.4135   11.3375 H         1 3AT800      0.0000 
     41 H          19.6126   11.0125   11.6577 H         1 3AT800      0.0000 
     42 H          22.1604   10.5276   17.7010 H         1 3AT800      0.0000 
@<TRIPOS>BOND
     1    2    1 ar   
     2    3    1 ar   
     3    4    1 ar   
     4    8    1 1    
     5    6    5 ar   
     6    7    5 ar   
     7    8    5 1    
     8   12    5 1    
     9   10    9 ar   
    10   11    9 ar   
    11   12    9 1    
    12   13    9 1    
    13   14   13 1    
    14   15   14 1    
    15   31   14 1    
    16   32   14 1    
    17   16   15 1    
    18   17   15 1    
    19   33   15 1    
    20   20   16 1    
    21   18   17 1    
    22   34   17 1    
    23   35   17 1    
    24   19   18 1    
    25   20   18 1    
    26   36   18 1    
    27   42   19 1    
    28   21   20 1    
    29   37   20 1    
    30   22   21 1    
    31   30   21 1    
    32   23   22 2    
    33   38   22 1    
    34   24   23 1    
    35   25   24 ar   
    36   30   24 ar   
    37   26   25 1    
    38   27   25 ar   
    39   39   26 1    
    40   40   26 1    
    41   28   27 ar   
    42   29   28 ar   
    43   41   28 1    
    44   30   29 ar   
@<TRIPOS>SUBSTRUCTURE
     1 3AT800      1 GROUP   
@<TRIPOS>SET

