#    Name: 1eg2_MTA_1_INTS_M
#    Modification time : Mon Mar 24 23:46:24 2014

@<TRIPOS>MOLECULE
1eg2_MTA_1_INTS_M
   47     0     9     0     0
SMALL
NO_CHARGES


@<TRIPOS>ATOM
      1 CA         27.5720   19.4470    0.4905 C.3       3 GLC5        0.0000 
      2 CA         27.7960   19.4730   -1.5430 C.3       9 GLL5        0.0000 
      3 CA         27.3480   19.4210    2.5240 C.3       6 GLP5        0.0000 
      4 CA         26.8360   19.0730   -3.2805 C.3       3 GLC5        0.0000 
      5 CA         25.8760   18.6730   -5.0180 C.3       6 GLP5        0.0000 
      6 CA         29.0890   23.9840   -1.2545 C.3       3 GLC5        0.0000 
      7 CA         28.8770   21.9850   -2.2360 C.3       9 GLL5        0.0000 
      8 CA         29.3010   25.9830   -0.2730 C.3       6 GLP5        0.0000 
      9 O          27.0770   23.3375   -7.1475 O.2       1 ALC1        0.0000 
     10 O          28.3550   23.6280   -6.8380 O.2       7 ALL1        0.0000 
     11 O          25.7990   23.0470   -7.4570 O.2       4 ALP1        0.0000 
     12 N          28.5705   19.7545   -5.7695 N.am      2 SEC2        0.0000 
     13 N          28.0250   21.1740   -5.5840 N.am      8 SEL2        0.0000 
     14 N          29.1160   18.3350   -5.9550 N.am      5 SEP2        0.0000 
     15 O          26.9120   22.1105   -6.5205 O.2       1 ALC1        0.0000 
     16 O          28.0250   21.1740   -5.5840 O.2       7 ALL1        0.0000 
     17 O          26.7260   21.6160   -5.5560 O.2       1 ALC1        0.0000 
     18 O          25.4270   22.0580   -5.5280 O.2       4 ALP1        0.0000 
     19 CA         26.6675   25.0730   -3.0050 C.3       3 GLC5        0.0000 
     20 CA         27.6150   24.3410   -4.6790 C.3       9 GLL5        0.0000 
     21 CA         25.7200   25.8050   -1.3310 C.3       6 GLP5        0.0000 
     22 CA         24.9090   29.6460   -2.6870 C.3       3 GLC5        0.0000 
     23 CA         26.2080   28.9960   -4.2730 C.3       9 GLL5        0.0000 
     24 CA         23.6100   30.2960   -1.1010 C.3       6 GLP5        0.0000 
     25 O          25.6855   31.2305   -4.6795 O.2       1 ALC1        0.0000 
     26 O          26.5300   30.3080   -4.1120 O.2       7 ALL1        0.0000 
     27 O          24.8410   32.1530   -5.2470 O.2       4 ALP1        0.0000 
     28 N          23.5450   29.1955   -4.1780 N.am      2 SEC2        0.0000 
     29 N          24.8780   28.6890   -4.3750 N.am      8 SEL2        0.0000 
     30 N          22.2120   29.7020   -3.9810 N.am      5 SEP2        0.0000 
     31 CA         23.4475   28.8470   -5.4375 C.3       3 GLC5        0.0000 
     32 CA         24.4960   27.3960   -4.5360 C.3       9 GLL5        0.0000 
     33 CA         22.3990   30.2980   -6.3390 C.3       6 GLP5        0.0000 
     34 CA         23.4950   28.1950   -3.0895 C.3       3 GLC5        0.0000 
     35 CA         22.4940   28.9940   -1.6430 C.3       6 GLP5        0.0000 
     36 CA         23.6735   25.6070   -5.5920 C.3       3 GLC5        0.0000 
     37 CA         22.8510   23.8180   -6.6480 C.3       6 GLP5        0.0000 
     38 CA         25.0345   27.4925   -6.2580 C.3       3 GLC5        0.0000 
     39 CA         25.5730   27.5890   -7.9800 C.3       6 GLP5        0.0000 
     40 N          24.8125   25.9650   -6.0985 N.am      2 SEC2        0.0000 
     41 N          25.3720   26.3620   -4.6010 N.am      8 SEL2        0.0000 
     42 N          24.2530   25.5680   -7.5960 N.am      5 SEP2        0.0000 
     43 CA         26.8487   22.7918   -1.8170 C.3       3 GLC5        0.0000 
     44 CA         28.0340   22.4260   -3.4460 C.3       9 GLL5        0.0000 
     45 CA         25.2420   23.3780   -0.7930 C.3       6 GLP5        0.0000 
     46 CA         26.1336   27.5874   -6.1899 C.3       3 GLC5        0.0000 
     47 CA         27.1850   27.9970   -4.3300 C.3       9 GLL5        0.0000 
@<TRIPOS>BOND
@<TRIPOS>SUBSTRUCTURE
     1 ALC1        9 GROUP        1 X    ALC  0     ROOT ALC X 1
     2 SEC2       12 GROUP        1 X    SEC  0     **** SEC X 2
     3 GLC5        1 GROUP        1 X    GLC  0     **** GLC X 6
     4 ALP1       11 GROUP        1 Y    ALP  0     ROOT ALP Y 8
     5 SEP2       14 GROUP        1 Y    SEP  0     **** SEP Y 9
     6 GLP5        3 GROUP        1 Y    GLP  0     **** GLP Y 13
     7 ALL1       10 GROUP        1 Z    ALL  0     ROOT ALL Z 15
     8 SEL2       13 GROUP        1 Z    SEL  0     **** SEL Z 16
     9 GLL5        2 GROUP        1 Z    GLL  0     **** GLL Z 20
@<TRIPOS>SET

