#    Name: 1eg2_MTA_1_ligand
#    Modification time : Mon Mar 24 23:46:24 2014

@<TRIPOS>MOLECULE
1eg2_MTA_1_ligand
   35    37     1     0     0
SMALL
NO_CHARGES


@<TRIPOS>ATOM
      1 CS         27.7960   19.4730   -1.5430 C.3       1 MTA401      0.0000 
      2 S5'        29.3100   20.2230   -2.2240 S.3       1 MTA401      0.0000 
      3 C5'        28.8770   21.9850   -2.2360 C.3       1 MTA401      0.0000 
      4 C4'        28.0340   22.4260   -3.4460 C.3       1 MTA401      0.0000 
      5 O4'        27.7060   23.8010   -3.3700 O.3       1 MTA401      0.0000 
      6 C2'        28.7240   23.6100   -5.4500 C.3       1 MTA401      0.0000 
      7 O2'        28.3550   23.6280   -6.8380 O.3       1 MTA401      0.0000 
      8 C3'        28.6700   22.2020   -4.8440 C.3       1 MTA401      0.0000 
      9 O3'        28.0250   21.1740   -5.5840 O.3       1 MTA401      0.0000 
     10 C1'        27.6150   24.3410   -4.6790 C.3       1 MTA401      0.0000 
     11 N9         27.7730   25.8030   -4.5290 N.pl3     1 MTA401      0.0000 
     12 C8         28.8650   26.5940   -4.3860 C.2       1 MTA401      0.0000 
     13 N7         28.5770   27.9040   -4.2660 N.2       1 MTA401      0.0000 
     14 C5         27.1850   27.9970   -4.3300 C.ar      1 MTA401      0.0000 
     15 C6         26.2080   28.9960   -4.2730 C.ar      1 MTA401      0.0000 
     16 N6         26.5300   30.3080   -4.1120 N.pl3     1 MTA401      0.0000 
     17 N1         24.8780   28.6890   -4.3750 N.ar      1 MTA401      0.0000 
     18 C2         24.4960   27.3960   -4.5360 C.ar      1 MTA401      0.0000 
     19 N3         25.3720   26.3620   -4.6010 N.ar      1 MTA401      0.0000 
     20 C4         26.6920   26.6750   -4.4980 C.ar      1 MTA401      0.0000 
     21 H          29.8443   22.4617   -2.1976 H         1 MTA401      0.0000 
     22 H          28.3618   22.1036   -1.2953 H         1 MTA401      0.0000 
     23 H          27.0969   21.8352   -3.4369 H         1 MTA401      0.0000 
     24 H          29.6313   24.0591   -5.2286 H         1 MTA401      0.0000 
     25 H          29.7309   21.9360   -4.6128 H         1 MTA401      0.0000 
     26 H          26.6735   24.0915   -5.1093 H         1 MTA401      0.0000 
     27 H          29.7976   26.2327   -4.3716 H         1 MTA401      0.0000 
     28 H          27.5044   30.5142   -4.0227 H         1 MTA401      0.0000 
     29 H          25.7639   30.9505   -4.0972 H         1 MTA401      0.0000 
     30 H          23.4580   27.1836   -4.6151 H         1 MTA401      0.0000 
     31 H          27.9246   18.5043   -1.3305 H         1 MTA401      0.0000 
     32 H          27.5065   19.9226   -0.6980 H         1 MTA401      0.0000 
     33 H          27.0309   19.5334   -2.1841 H         1 MTA401      0.0000 
     34 H          27.3760   23.4245   -6.8481 H         1 MTA401      0.0000 
     35 H          27.0619   21.4417   -5.6133 H         1 MTA401      0.0000 
@<TRIPOS>BOND
     1    2    1 1    
     2   31    1 1    
     3   32    1 1    
     4   33    1 1    
     5    3    2 1    
     6    4    3 1    
     7   21    3 1    
     8   22    3 1    
     9    5    4 1    
    10    8    4 1    
    11   23    4 1    
    12   10    5 1    
    13    7    6 1    
    14    8    6 1    
    15   10    6 1    
    16   24    6 1    
    17   34    7 1    
    18    9    8 1    
    19   25    8 1    
    20   35    9 1    
    21   11   10 1    
    22   26   10 1    
    23   12   11 1    
    24   20   11 1    
    25   13   12 2    
    26   27   12 1    
    27   14   13 1    
    28   15   14 ar   
    29   20   14 ar   
    30   16   15 1    
    31   17   15 ar   
    32   28   16 1    
    33   29   16 1    
    34   18   17 ar   
    35   19   18 ar   
    36   30   18 1    
    37   20   19 ar   
@<TRIPOS>SUBSTRUCTURE
     1 MTA401      1 GROUP   
@<TRIPOS>SET

