#    Name: 2ZET_2_CAVITY_N1_6.mol2
#    Modification time : Tue Mar 11 05:37:12 2014

@<TRIPOS>MOLECULE
2ZET_2_CAVITY_N1_6.mol2
   75     0     7     0     0
SMALL
NO_CHARGES


@<TRIPOS>ATOM
      1 CA        -13.0139   71.3639  145.3010 C.3       6 GLY6        0.0000 
      2 O          -8.6200   76.2111  151.8354 O.2       2 ALA2        0.0000 
      3 OD1        -9.5488   76.3662  149.9345 O.3       3 ASP3        0.0000 
      4 OD1       -10.4774   75.5020  149.1341 O.3       3 ASP3        0.0000 
      5 CA        -14.1921   73.0644  144.8318 C.3       6 GLY6        0.0000 
      6 CA        -14.1919   72.0451  145.9322 C.3       6 GLY6        0.0000 
      7 CA        -10.9769   84.7090  145.3949 C.3       6 GLY6        0.0000 
      8 OD1       -10.9763   80.6315  149.7965 O.3       3 ASP3        0.0000 
      9 N         -10.9762   79.6122  150.8969 N.2       2 ALA2        0.0000 
     10 CA        -11.9055   83.8448  144.5944 C.3       6 GLY6        0.0000 
     11 CA        -11.9054   82.8254  145.6948 C.3       6 GLY6        0.0000 
     12 CA        -11.9052   81.8060  146.7952 C.3       6 GLY6        0.0000 
     13 OD1       -11.9051   80.7867  147.8956 O.3       3 ASP3        0.0000 
     14 OG        -11.9050   79.7673  148.9960 O.2       1 SER1        0.0000 
     15 CZ        -11.9048   78.7479  150.0964 C.ar      5 PHE5        0.0000 
     16 CZ        -12.8341   82.9805  143.7939 C.ar      5 PHE5        0.0000 
     17 CZ        -12.8340   81.9612  144.8943 C.ar      5 PHE5        0.0000 
     18 CZ        -12.8339   80.9418  145.9947 C.ar      5 PHE5        0.0000 
     19 OG        -12.8337   79.9224  147.0952 O.2       1 SER1        0.0000 
     20 OG        -12.8336   78.9031  148.1956 O.2       1 SER1        0.0000 
     21 OG        -12.8335   77.8837  149.2960 O.2       1 SER1        0.0000 
     22 CA        -12.8334   76.8643  150.3964 C.3       6 GLY6        0.0000 
     23 CZ        -12.8332   75.8450  151.4968 C.ar      5 PHE5        0.0000 
     24 CA        -13.7624   79.0582  146.2947 C.3       6 GLY6        0.0000 
     25 O         -13.7619   74.9808  150.6963 O.2       2 ALA2        0.0000 
     26 N         -14.6905   74.1165  149.8958 N.2       2 ALA2        0.0000 
     27 N         -15.6194   75.2910  146.8946 N.2       2 ALA2        0.0000 
     28 N         -15.6193   74.2717  147.9950 N.2       2 ALA2        0.0000 
     29 CA        -15.6191   73.2523  149.0954 C.3       6 GLY6        0.0000 
     30 CA        -12.1549   85.3902  146.0260 C.3       6 GLY6        0.0000 
     31 CA        -12.1547   84.3708  147.1264 C.3       6 GLY6        0.0000 
     32 OD1       -12.1546   83.3514  148.2268 O.3       3 ASP3        0.0000 
     33 CZ        -12.1542   80.2933  151.5281 C.ar      5 PHE5        0.0000 
     34 NZ        -13.0835   84.5259  145.2256 N.2       4 LYS4        0.0000 
     35 DU        -13.0834   83.5066  146.3260 H         7 CUB7        0.0000 
     36 OD1       -13.0832   82.4872  147.4264 O.3       3 ASP3        0.0000 
     37 OD1       -13.0831   81.4678  148.5268 O.3       3 ASP3        0.0000 
     38 DU        -13.0830   80.4485  149.6272 H         7 CUB7        0.0000 
     39 CA        -13.0828   79.4291  150.7276 C.3       6 GLY6        0.0000 
     40 NZ        -14.0123   84.6811  143.3247 N.2       4 LYS4        0.0000 
     41 CZ        -14.0121   83.6617  144.4251 C.ar      5 PHE5        0.0000 
     42 CZ        -14.0120   82.6424  145.5255 C.ar      5 PHE5        0.0000 
     43 CZ        -14.0119   81.6230  146.6259 C.ar      5 PHE5        0.0000 
     44 N         -14.0117   80.6036  147.7263 N.2       2 ALA2        0.0000 
     45 N         -14.0116   79.5843  148.8267 N.2       2 ALA2        0.0000 
     46 N         -14.0115   78.5649  149.9271 N.2       2 ALA2        0.0000 
     47 N         -14.9404   79.7394  146.9258 N.2       2 ALA2        0.0000 
     48 N         -14.9402   78.7200  148.0262 N.2       2 ALA2        0.0000 
     49 CA        -10.7275   83.1636  143.9633 C.3       6 GLY6        0.0000 
     50 CA        -10.7274   82.1442  145.0637 C.3       6 GLY6        0.0000 
     51 CA        -10.7273   81.1249  146.1641 C.3       6 GLY6        0.0000 
     52 CA        -10.7271   80.1055  147.2645 C.3       6 GLY6        0.0000 
     53 CA        -10.7270   79.0861  148.3649 C.3       6 GLY6        0.0000 
     54 OG        -10.7269   78.0668  149.4653 O.2       1 SER1        0.0000 
     55 CZ        -10.7267   77.0474  150.5657 C.ar      5 PHE5        0.0000 
     56 CZ        -10.7266   76.0280  151.6661 C.ar      5 PHE5        0.0000 
     57 CZ        -11.6562   82.2994  143.1628 C.ar      5 PHE5        0.0000 
     58 CZ        -11.6560   81.2800  144.2632 C.ar      5 PHE5        0.0000 
     59 CA        -11.6559   80.2606  145.3636 C.3       6 GLY6        0.0000 
     60 OG        -11.6554   76.1832  149.7652 O.2       1 SER1        0.0000 
     61 OD1       -11.6552   75.1638  150.8656 O.3       3 ASP3        0.0000 
     62 OG        -12.5840   75.3189  148.9647 O.2       1 SER1        0.0000 
     63 OD1       -12.5839   74.2996  150.0652 O.3       3 ASP3        0.0000 
     64 OG        -13.5126   74.4547  148.1643 O.2       1 SER1        0.0000 
     65 CA        -13.5125   73.4353  149.2647 C.3       6 GLY6        0.0000 
     66 N         -13.5124   72.4160  150.3651 N.2       2 ALA2        0.0000 
     67 OG        -14.4414   74.6099  146.2634 O.2       1 SER1        0.0000 
     68 CA        -14.4413   73.5905  147.3638 C.3       6 GLY6        0.0000 
     69 CA        -14.4411   72.5711  148.4642 C.3       6 GLY6        0.0000 
     70 CA        -14.4410   71.5518  149.5646 C.3       6 GLY6        0.0000 
     71 CA        -13.3328   86.0714  146.6572 C.3       6 GLY6        0.0000 
     72 CA        -14.2616   86.2265  144.7563 C.3       6 GLY6        0.0000 
     73 CA        -14.2615   85.2071  145.8567 C.3       6 GLY6        0.0000 
     74 DU        -14.2613   84.1878  146.9571 H         7 CUB7        0.0000 
     75 DU        -14.2612   83.1684  148.0575 H         7 CUB7        0.0000 
@<TRIPOS>BOND
@<TRIPOS>SUBSTRUCTURE
     1 SER1       14 GROUP   
     2 ALA2        2 GROUP   
     3 ASP3        3 GROUP   
     4 LYS4       34 GROUP   
     5 PHE5       15 GROUP   
     6 GLY6        1 GROUP   
     7 CUB7       35 GROUP   
@<TRIPOS>SET

