#    Name: 2zet_GTP_2_INTS_M
#    Modification time : Mon Apr  7 18:43:49 2014

@<TRIPOS>MOLECULE
2zet_GTP_2_INTS_M
   85     0    15     0     0
SMALL
NO_CHARGES


@<TRIPOS>ATOM
      1 Zn         -8.9195   73.1090  151.7095 Zn        4 ZIC7        0.0000 
      2 Zn         -8.1860   73.0020  152.6280 Zn       14 ZIL7        0.0000 
      3 Zn         -9.6530   73.2160  150.7910 Zn        9 ZIP7        0.0000 
      4 N          -9.2710   72.3335  153.4175 N.am      2 SEC2        0.0000 
      5 N          -8.1860   73.0020  152.6280 N.am     12 SEL2        0.0000 
      6 N         -10.3560   71.6650  154.2070 N.am      7 SEP2        0.0000 
      7 NZ         -5.0020   74.5955  152.1390 N.4       3 LYC4        0.0000 
      8 NZ         -6.2010   74.5900  152.7390 N.4      13 LYL4        0.0000 
      9 NZ         -3.8030   74.6010  151.5390 N.4       8 LYP4        0.0000 
     10 N          -5.0020   74.5955  152.1390 N.am      2 SEC2        0.0000 
     11 N          -6.2010   74.5900  152.7390 N.am     12 SEL2        0.0000 
     12 N          -3.8030   74.6010  151.5390 N.am      7 SEP2        0.0000 
     13 N          -5.2995   73.7260  153.7280 N.am      2 SEC2        0.0000 
     14 N          -4.3980   72.8620  154.7170 N.am      7 SEP2        0.0000 
     15 N          -7.5765   75.6205  155.1345 N.am      2 SEC2        0.0000 
     16 N          -8.1020   74.6640  154.5400 N.am     12 SEL2        0.0000 
     17 N          -7.0510   76.5770  155.7290 N.am      7 SEP2        0.0000 
     18 N          -8.8485   74.2500  155.5920 N.am      2 SEC2        0.0000 
     19 N          -9.5950   73.8360  156.6440 N.am      7 SEP2        0.0000 
     20 Zn         -9.1630   74.3460  151.4485 Zn        4 ZIC7        0.0000 
     21 Zn         -8.6730   75.4760  152.1060 Zn       14 ZIL7        0.0000 
     22 N          -7.8065   76.9045  152.5355 N.am      2 SEC2        0.0000 
     23 N          -8.6730   75.4760  152.1060 N.am     12 SEL2        0.0000 
     24 N          -6.9400   78.3330  152.9650 N.am      7 SEP2        0.0000 
     25 NZ         -5.1920   75.4850  151.1920 N.4       3 LYC4        0.0000 
     26 NZ         -6.5810   76.3690  150.8450 N.4      13 LYL4        0.0000 
     27 N          -6.7605   77.3510  151.9050 N.am      2 SEC2        0.0000 
     28 N          -6.5810   76.3690  150.8450 N.am     12 SEL2        0.0000 
     29 N          -6.8355   77.6410  149.6875 N.am      2 SEC2        0.0000 
     30 N          -7.0900   78.9130  148.5300 N.am      7 SEP2        0.0000 
     31 N          -6.6145   76.3750  149.1585 N.am      2 SEC2        0.0000 
     32 N          -6.6480   76.3810  147.4720 N.am      7 SEP2        0.0000 
     33 N          -5.1920   75.4850  151.1920 N.am      2 SEC2        0.0000 
     34 Zn         -8.7955   73.8730  150.2775 Zn        4 ZIC7        0.0000 
     35 Zn         -7.9380   74.5300  149.7640 Zn       14 ZIL7        0.0000 
     36 N          -8.0595   74.1210  148.5215 N.am      2 SEC2        0.0000 
     37 N          -7.9380   74.5300  149.7640 N.am     12 SEL2        0.0000 
     38 N          -8.1810   73.7120  147.2790 N.am      7 SEP2        0.0000 
     39 N          -7.9730   77.9555  149.2495 N.am      2 SEC2        0.0000 
     40 N          -8.8560   76.9980  149.9690 N.am     12 SEL2        0.0000 
     41 N         -10.4950   75.1780  147.1545 N.am      2 SEC2        0.0000 
     42 N         -10.4390   75.6450  148.4290 N.am     12 SEL2        0.0000 
     43 N         -10.5510   74.7110  145.8800 N.am      7 SEP2        0.0000 
     44 N         -11.2400   76.2610  147.5210 N.am      2 SEC2        0.0000 
     45 N         -12.0410   76.8770  146.6130 N.am      7 SEP2        0.0000 
     46 CA         -9.4025   79.1660  151.2790 C.3       5 GLC5        0.0000 
     47 CA        -11.0070   78.9570  150.1060 C.3      15 GLL5        0.0000 
     48 CA         -7.7980   79.3750  152.4520 C.3      10 GLP5        0.0000 
     49 CA         -9.4605   78.7055  148.7655 C.3       5 GLC5        0.0000 
     50 CA         -7.9140   78.4540  147.4250 C.3      10 GLP5        0.0000 
     51 N         -10.4500   81.8180  148.7920 N.am      2 SEC2        0.0000 
     52 N         -11.5450   81.0210  148.8680 N.am     12 SEL2        0.0000 
     53 N          -9.3550   82.6150  148.7160 N.am      7 SEP2        0.0000 
     54 CA        -14.0015   78.9785  151.0725 C.3       5 GLC5        0.0000 
     55 CA        -13.3770   79.4410  149.3570 C.3      15 GLL5        0.0000 
     56 CA        -14.6260   78.5160  152.7880 C.3      10 GLP5        0.0000 
     57 O         -15.8240   79.6845  149.6510 O.2       1 ALC1        0.0000 
     58 O         -14.4900   79.6330  150.2420 O.2      11 ALL1        0.0000 
     59 O         -17.1580   79.7360  149.0600 O.2       6 ALP1        0.0000 
     60 CA        -10.7065   81.8535  147.5485 C.3       5 GLC5        0.0000 
     61 CA        -12.4980   81.1560  147.8030 C.3      15 GLL5        0.0000 
     62 CA         -8.9150   82.5510  147.2940 C.3      10 GLP5        0.0000 
     63 N          -8.9610   80.6255  144.7360 N.am      2 SEC2        0.0000 
     64 N         -10.6050   80.4250  144.8080 N.am     12 SEL2        0.0000 
     65 N          -7.3170   80.8260  144.6640 N.am      7 SEP2        0.0000 
     66 CA         -9.6945   82.7150  144.8400 C.3       5 GLC5        0.0000 
     67 CA        -11.0410   81.7030  144.5140 C.3      15 GLL5        0.0000 
     68 CA         -8.3480   83.7270  145.1660 C.3      10 GLP5        0.0000 
     69 CA        -10.8185   80.2775  143.0235 C.3       5 GLC5        0.0000 
     70 CA        -10.5960   78.8520  141.5330 C.3      10 GLP5        0.0000 
     71 N         -11.1970   81.8030  141.2340 N.am      2 SEC2        0.0000 
     72 N         -10.2140   82.2990  142.4250 N.am     12 SEL2        0.0000 
     73 N         -12.1800   81.3070  140.0430 N.am      7 SEP2        0.0000 
     74 O         -10.9615   84.8335  142.6890 O.2       1 ALC1        0.0000 
     75 O         -11.4820   83.8660  143.4730 O.2      11 ALL1        0.0000 
     76 O         -10.4410   85.8010  141.9050 O.2       6 ALP1        0.0000 
     77 O         -12.0385   85.0550  142.6935 O.2       1 ALC1        0.0000 
     78 O         -12.5950   86.2440  141.9140 O.2       6 ALP1        0.0000 
     79 O         -12.7260   85.8680  143.2955 O.2       1 ALC1        0.0000 
     80 O         -12.8570   85.4920  144.6770 O.2      11 ALL1        0.0000 
     81 CA        -10.3690   82.3460  146.4620 C.3       5 GLC5        0.0000 
     82 CA        -11.8230   82.1410  145.6300 C.3      15 GLL5        0.0000 
     83 CA        -11.8975   78.6257  151.6045 C.3       5 GLC5        0.0000 
     84 CA        -12.0470   80.0760  149.8420 C.3      15 GLL5        0.0000 
     85 CA        -12.2680   77.7350  153.2350 C.3      10 GLP5        0.0000 
@<TRIPOS>BOND
@<TRIPOS>SUBSTRUCTURE
     1 ALC1       57 GROUP        1 X    ALC  0     ROOT ALC X 1
     2 SEC2        4 GROUP        1 X    SEC  0     **** SEC X 2
     3 LYC4        7 GROUP        1 X    LYC  0     **** LYC X 4
     4 ZIC7        1 GROUP        1 X    ZIC  0     **** ZIC X 5
     5 GLC5       46 GROUP        1 X    GLC  0     **** GLC X 6
     6 ALP1       59 GROUP        1 Y    ALP  0     ROOT ALP Y 8
     7 SEP2        6 GROUP        1 Y    SEP  0     **** SEP Y 9
     8 LYP4        9 GROUP        1 Y    LYP  0     **** LYP Y 11
     9 ZIP7        3 GROUP        1 Y    ZIP  0     **** ZIP Y 12
    10 GLP5       48 GROUP        1 Y    GLP  0     **** GLP Y 13
    11 ALL1       58 GROUP        1 Z    ALL  0     ROOT ALL Z 15
    12 SEL2        5 GROUP        1 Z    SEL  0     **** SEL Z 16
    13 LYL4        8 GROUP        1 Z    LYL  0     **** LYL Z 18
    14 ZIL7        2 GROUP        1 Z    ZIL  0     **** ZIL Z 19
    15 GLL5       47 GROUP        1 Z    GLL  0     **** GLL Z 20
@<TRIPOS>SET

