#    Name: 2zet_GTP_2_ligand
#    Modification time : Mon Apr  7 18:43:49 2014

@<TRIPOS>MOLECULE
2zet_GTP_2_ligand
   44    46     1     0     0
SMALL
NO_CHARGES


@<TRIPOS>ATOM
      1 PG         -7.7870   74.4000  152.9900 P.3       1 GTP203      0.0000 
      2 O1G        -8.1860   73.0020  152.6280 O.co2     1 GTP203      0.0000 
      3 O2G        -6.2010   74.5900  152.7390 O.co2     1 GTP203      0.0000 
      4 O3G        -8.1020   74.6640  154.5400 O.co2     1 GTP203      0.0000 
      5 O3B        -8.6730   75.4760  152.1060 O.3       1 GTP203      0.0000 
      6 PB         -7.9650   75.8500  150.6830 P.3       1 GTP203      0.0000 
      7 O1B        -6.5810   76.3690  150.8450 O.co2     1 GTP203      0.0000 
      8 O2B        -7.9380   74.5300  149.7640 O.co2     1 GTP203      0.0000 
      9 O3A        -8.8560   76.9980  149.9690 O.3       1 GTP203      0.0000 
     10 PA        -10.3930   76.6480  149.5080 P.3       1 GTP203      0.0000 
     11 O1A       -10.4390   75.6450  148.4290 O.co2     1 GTP203      0.0000 
     12 O2A       -11.2850   76.1320  150.7630 O.co2     1 GTP203      0.0000 
     13 O5'       -10.9290   78.0750  148.9330 O.3       1 GTP203      0.0000 
     14 C5'       -11.0070   78.9570  150.1060 C.3       1 GTP203      0.0000 
     15 C4'       -12.0470   80.0760  149.8420 C.3       1 GTP203      0.0000 
     16 O4'       -11.5450   81.0210  148.8680 O.3       1 GTP203      0.0000 
     17 C3'       -13.3770   79.4410  149.3570 C.3       1 GTP203      0.0000 
     18 O3'       -14.4900   79.6330  150.2420 O.3       1 GTP203      0.0000 
     19 C2'       -13.6280   80.0840  147.9740 C.3       1 GTP203      0.0000 
     20 O2'       -14.9130   80.6660  147.8840 O.3       1 GTP203      0.0000 
     21 C1'       -12.4980   81.1560  147.8030 C.3       1 GTP203      0.0000 
     22 N9        -11.8210   81.1070  146.5280 N.pl3     1 GTP203      0.0000 
     23 C8        -11.0630   80.0700  145.9980 C.2       1 GTP203      0.0000 
     24 N7        -10.6050   80.4250  144.8080 N.2       1 GTP203      0.0000 
     25 C5        -11.0410   81.7030  144.5140 C.2       1 GTP203      0.0000 
     26 C6        -10.8730   82.6170  143.4020 C.2       1 GTP203      0.0000 
     27 O6        -10.2140   82.2990  142.4250 O.2       1 GTP203      0.0000 
     28 N1        -11.4820   83.8660  143.4730 N.am      1 GTP203      0.0000 
     29 C2        -12.2460   84.2360  144.6100 C.2       1 GTP203      0.0000 
     30 N2        -12.8570   85.4920  144.6770 N.pl3     1 GTP203      0.0000 
     31 N3        -12.3990   83.3870  145.6380 N.2       1 GTP203      0.0000 
     32 C4        -11.8230   82.1410  145.6300 C.2       1 GTP203      0.0000 
     33 H         -10.0488   79.4311  150.3051 H         1 GTP203      0.0000 
     34 H         -11.3234   78.4079  150.9897 H         1 GTP203      0.0000 
     35 H         -12.2471   80.5628  150.7895 H         1 GTP203      0.0000 
     36 H         -13.1704   78.3903  149.1683 H         1 GTP203      0.0000 
     37 H         -13.4468   79.3267  147.2312 H         1 GTP203      0.0000 
     38 H         -13.0031   82.1385  147.9118 H         1 GTP203      0.0000 
     39 H         -10.9146   79.2300  146.4587 H         1 GTP203      0.0000 
     40 H         -11.3846   84.5367  142.6994 H         1 GTP203      0.0000 
     41 H         -12.7410   86.0810  143.8772 H         1 GTP203      0.0000 
     42 H         -13.3575   85.6935  145.5189 H         1 GTP203      0.0000 
     43 H         -15.1812   80.1005  149.6909 H         1 GTP203      0.0000 
     44 H         -14.7460   81.6451  147.7678 H         1 GTP203      0.0000 
@<TRIPOS>BOND
     1    2    1 ar   
     2    3    1 ar   
     3    4    1 ar   
     4    5    1 1    
     5    6    5 1    
     6    7    6 ar   
     7    8    6 ar   
     8    9    6 1    
     9   10    9 1    
    10   11   10 ar   
    11   12   10 ar   
    12   13   10 1    
    13   14   13 1    
    14   15   14 1    
    15   33   14 1    
    16   34   14 1    
    17   16   15 1    
    18   17   15 1    
    19   35   15 1    
    20   21   16 1    
    21   18   17 1    
    22   19   17 1    
    23   36   17 1    
    24   43   18 1    
    25   20   19 1    
    26   21   19 1    
    27   37   19 1    
    28   44   20 1    
    29   22   21 1    
    30   38   21 1    
    31   23   22 1    
    32   32   22 1    
    33   24   23 2    
    34   39   23 1    
    35   25   24 1    
    36   26   25 1    
    37   32   25 2    
    38   27   26 2    
    39   28   26 am   
    40   29   28 1    
    41   40   28 1    
    42   30   29 1    
    43   31   29 2    
    44   41   30 1    
    45   42   30 1    
    46   32   31 1    
@<TRIPOS>SUBSTRUCTURE
     1 GTP203      1 GROUP   
@<TRIPOS>SET

