#    Name: 2jah_NDP_1_INTS_M
#    Modification time : Tue Mar 25 19:49:18 2014

@<TRIPOS>MOLECULE
2jah_NDP_1_INTS_M
  132     0    12     0     0
SMALL
NO_CHARGES


@<TRIPOS>ATOM
      1 N          23.8445   -9.2645   11.4530 N.am      2 SEC2        0.0000 
      2 N          24.1160  -10.0960   12.5370 N.am     10 SEL2        0.0000 
      3 N          23.5730   -8.4330   10.3690 N.am      6 SEP2        0.0000 
      4 N          22.9710  -11.2580   13.1305 N.am      2 SEC2        0.0000 
      5 N          21.8260  -12.4200   13.7240 N.am      6 SEP2        0.0000 
      6 N          25.0225   -8.8845   11.2225 N.am      2 SEC2        0.0000 
      7 N          26.4720   -9.3360   12.0760 N.am     10 SEL2        0.0000 
      8 N          26.6745   -8.0740   12.8360 N.am      2 SEC2        0.0000 
      9 N          26.8770   -6.8120   13.5960 N.am      6 SEP2        0.0000 
     10 N          25.9300   -5.3085    9.1205 N.am      2 SEC2        0.0000 
     11 N          26.5500   -6.8320    9.3240 N.am     10 SEL2        0.0000 
     12 N          25.3100   -3.7850    8.9170 N.am      6 SEP2        0.0000 
     13 N          25.0530   -6.1930    9.6880 N.am      2 SEC2        0.0000 
     14 N          23.5560   -5.5540   10.0520 N.am      6 SEP2        0.0000 
     15 O          25.8540   -6.4570    8.2380 O.2       1 ALC1        0.0000 
     16 O          26.5500   -6.8320    9.3240 O.2       9 ALL1        0.0000 
     17 O          25.1580   -6.0820    7.1520 O.2       5 ALP1        0.0000 
     18 N          25.4555   -8.3070    7.3330 N.am      2 SEC2        0.0000 
     19 N          27.1410   -7.8770    7.1680 N.am     10 SEL2        0.0000 
     20 N          23.7700   -8.7370    7.4980 N.am      6 SEP2        0.0000 
     21 CA         30.7310   -7.7625    9.8840 C.3       4 GLC5        0.0000 
     22 CA         29.0750   -8.1900    8.5680 C.3      12 GLL5        0.0000 
     23 CA         32.3870   -7.3350   11.2000 C.3       8 GLP5        0.0000 
     24 CA         33.8635   -7.7025    4.2125 C.3       4 GLC5        0.0000 
     25 CA         33.0290   -8.9300    5.8090 C.3      12 GLL5        0.0000 
     26 CA         34.6980   -6.4750    2.6160 C.3       8 GLP5        0.0000 
     27 CA         34.5850   -8.2515    6.6665 C.3       4 GLC5        0.0000 
     28 CA         36.1410   -7.5730    7.5240 C.3       8 GLP5        0.0000 
     29 O          34.7015   -9.4980    4.2540 O.2       1 ALC1        0.0000 
     30 O          33.8920   -9.8690    5.3880 O.2       9 ALL1        0.0000 
     31 O          35.5110   -9.1270    3.1200 O.2       5 ALP1        0.0000 
     32 O          34.6695  -11.1335    6.2540 O.2       1 ALC1        0.0000 
     33 O          35.4470  -12.3980    7.1200 O.2       5 ALP1        0.0000 
     34 N          34.5800   -6.9990    5.1190 N.am      2 SEC2        0.0000 
     35 N          33.2520   -7.5940    5.5130 N.am     10 SEL2        0.0000 
     36 N          35.9080   -6.4040    4.7250 N.am      6 SEP2        0.0000 
     37 CA         30.8250   -5.3295    5.6610 C.3       4 GLC5        0.0000 
     38 CA         32.4090   -6.6220    6.0240 C.3      12 GLL5        0.0000 
     39 CA         29.2410   -4.0370    5.2980 C.3       8 GLP5        0.0000 
     40 CA         31.5935   -7.2300    4.2420 C.3       4 GLC5        0.0000 
     41 CA         30.7780   -7.8380    2.4600 C.3       8 GLP5        0.0000 
     42 CA         33.5535   -6.5485    4.3200 C.3       4 GLC5        0.0000 
     43 CA         34.0050   -5.8565    6.7475 C.3       4 GLC5        0.0000 
     44 CA         35.6010   -5.0910    7.4710 C.3       8 GLP5        0.0000 
     45 CA         32.7340   -6.7670    7.9580 C.3       4 GLC5        0.0000 
     46 CA         33.0590   -6.9120    9.8920 C.3       8 GLP5        0.0000 
     47 N          24.9535  -11.7035   14.9455 N.am      2 SEC2        0.0000 
     48 N          26.0610  -11.1620   13.8220 N.am     10 SEL2        0.0000 
     49 N          23.8460  -12.2450   16.0690 N.am      6 SEP2        0.0000 
     50 N          25.0575  -11.7145   16.1805 N.am      2 SEC2        0.0000 
     51 N          26.2690  -11.1840   16.2920 N.am     10 SEL2        0.0000 
     52 N          25.2545   -7.7645   15.6245 N.am      2 SEC2        0.0000 
     53 N          25.8730   -8.9730   15.0820 N.am     10 SEL2        0.0000 
     54 N          24.6360   -6.5560   16.1670 N.am      6 SEP2        0.0000 
     55 CA         30.8800   -8.3120   17.1655 C.3       4 GLC5        0.0000 
     56 CA         30.0960   -9.3740   15.8450 C.3      12 GLL5        0.0000 
     57 CA         31.6640   -7.2500   18.4860 C.3       8 GLP5        0.0000 
     58 CA         31.7965  -10.7595   13.7000 C.3       4 GLC5        0.0000 
     59 CA         30.9950  -10.5000   15.3430 C.3      12 GLL5        0.0000 
     60 CA         32.5980  -11.0190   12.0570 C.3       8 GLP5        0.0000 
     61 N          33.4360  -10.7320   16.1825 N.am      2 SEC2        0.0000 
     62 N          32.3310  -10.0560   15.4300 N.am     10 SEL2        0.0000 
     63 N          34.5410  -11.4080   16.9350 N.am      6 SEP2        0.0000 
     64 CA         32.7380  -12.2220   16.8805 C.3       4 GLC5        0.0000 
     65 CA         30.7600  -11.6360   16.3140 C.3      12 GLL5        0.0000 
     66 CA         34.7160  -12.8080   17.4470 C.3       8 GLP5        0.0000 
     67 N          31.7710  -13.6590   17.0750 N.am      2 SEC2        0.0000 
     68 N          31.8640  -12.5310   16.3800 N.am     10 SEL2        0.0000 
     69 N          31.6780  -14.7870   17.7700 N.am      6 SEP2        0.0000 
     70 N          33.2025  -11.9695   16.6575 N.am      2 SEC2        0.0000 
     71 CA         28.7225   -9.6710   18.3410 C.3       4 GLC5        0.0000 
     72 CA         30.4580  -10.8340   17.5830 C.3      12 GLL5        0.0000 
     73 CA         26.9870   -8.5080   19.0990 C.3       8 GLP5        0.0000 
     74 CA         31.0610   -9.0420   18.0345 C.3       4 GLC5        0.0000 
     75 CA         26.0150  -11.8870   20.3950 C.3       4 GLC5        0.0000 
     76 CA         27.7940  -12.7250   19.4810 C.3      12 GLL5        0.0000 
     77 CA         24.2360  -11.0490   21.3090 C.3       8 GLP5        0.0000 
     78 N          25.0335  -13.8685   21.0805 N.am      2 SEC2        0.0000 
     79 N          26.0070  -14.3210   20.1310 N.am     10 SEL2        0.0000 
     80 N          24.0600  -13.4160   22.0300 N.am      6 SEP2        0.0000 
     81 O          24.1680  -13.0715   18.9945 O.2       1 ALC1        0.0000 
     82 O          25.5750  -12.7700   18.3680 O.2       9 ALL1        0.0000 
     83 O          22.7610  -13.3730   19.6210 O.2       5 ALP1        0.0000 
     84 CA         28.5400  -11.4290   22.1060 C.3       4 GLC5        0.0000 
     85 CA         28.4560  -12.9730   20.8160 C.3      12 GLL5        0.0000 
     86 CA         28.6240   -9.8850   23.3960 C.3       8 GLP5        0.0000 
     87 NZ         25.0950   -7.8955    5.0560 N.4       3 LYC4        0.0000 
     88 NZ         26.4020   -7.2480    4.9070 N.4      11 LYL4        0.0000 
     89 NZ         23.2700   -9.0640    6.3150 N.4       7 LYP4        0.0000 
     90 N          25.7800   -6.6650    6.0295 N.am      2 SEC2        0.0000 
     91 N          26.4020   -7.2480    4.9070 N.am     10 SEL2        0.0000 
     92 N          25.1580   -6.0820    7.1520 N.am      6 SEP2        0.0000 
     93 N          26.4200   -6.6800    3.6435 N.am      2 SEC2        0.0000 
     94 N          26.4380   -6.1120    2.3800 N.am      6 SEP2        0.0000 
     95 N          25.0950   -7.8955    5.0560 N.am      2 SEC2        0.0000 
     96 N          23.7880   -8.5430    5.2050 N.am      6 SEP2        0.0000 
     97 NZ         29.4420   -8.8560    4.5260 N.4       3 LYC4        0.0000 
     98 NZ         28.7770   -7.9080    5.2520 N.4      11 LYL4        0.0000 
     99 NZ         29.9910  -11.0830    4.1470 N.4       7 LYP4        0.0000 
    100 N          28.8835   -6.7930    4.3890 N.am      2 SEC2        0.0000 
    101 N          28.7770   -7.9080    5.2520 N.am     10 SEL2        0.0000 
    102 N          28.9900   -5.6780    3.5260 N.am      6 SEP2        0.0000 
    103 N          29.4420   -8.8560    4.5260 N.am      2 SEC2        0.0000 
    104 N          30.1070   -9.8040    3.8000 N.am      6 SEP2        0.0000 
    105 NZ         28.0270  -10.5320    5.1500 N.4       3 LYC4        0.0000 
    106 NZ         26.9850   -9.6250    5.2670 N.4      11 LYL4        0.0000 
    107 NZ         25.1275   -9.3445    5.7910 N.4       3 LYC4        0.0000 
    108 N          28.5460   -9.7145    4.5335 N.am      2 SEC2        0.0000 
    109 N          26.9850   -9.6250    5.2670 N.am     10 SEL2        0.0000 
    110 N          28.0270  -10.5320    5.1500 N.am      2 SEC2        0.0000 
    111 N          29.0690  -11.4390    5.0330 N.am      6 SEP2        0.0000 
    112 CA         32.2955   -7.8453    8.3803 C.3       4 GLC5        0.0000 
    113 CA         31.9480   -9.2770    6.6170 C.3      12 GLL5        0.0000 
    114 CA         33.6052   -9.9917    7.5250 C.3       4 GLC5        0.0000 
    115 CA         34.7220  -10.8800    8.8370 C.3       8 GLP5        0.0000 
    116 CA         31.4341   -8.9874    4.7467 C.3       4 GLC5        0.0000 
    117 CA         31.0660   -9.2830    2.8270 C.3       8 GLP5        0.0000 
    118 CA         29.6642  -12.4910   14.9432 C.3       4 GLC5        0.0000 
    119 CA         28.4510  -13.9140   14.0580 C.3       8 GLP5        0.0000 
    120 CA         27.5602  -10.4472   19.0360 C.3       4 GLC5        0.0000 
    121 CA         28.4730  -12.0480   18.4650 C.3      12 GLL5        0.0000 
    122 CA         28.0778  -13.5887   17.6715 C.3       4 GLC5        0.0000 
    123 CA         28.0220  -14.7910   16.3700 C.3       8 GLP5        0.0000 
    124 CA         31.7275  -12.8167   20.7830 C.3       4 GLC5        0.0000 
    125 CA         30.4300  -11.7550   19.8170 C.3      12 GLL5        0.0000 
    126 CA         33.3160  -13.5470   21.2130 C.3       8 GLP5        0.0000 
    127 CA         30.5290  -10.7757   21.5790 C.3       4 GLC5        0.0000 
    128 CA         29.8480  -12.4180   20.8890 C.3      12 GLL5        0.0000 
    129 CA         30.9190   -9.4650   22.8050 C.3       8 GLP5        0.0000 
    130 CA         28.6343   -6.7066    9.6890 C.3       4 GLC5        0.0000 
    131 CA         26.9220   -8.1960    9.4600 C.3      12 GLL5        0.0000 
    132 CA         29.3660   -5.0840   10.1730 C.3       8 GLP5        0.0000 
@<TRIPOS>BOND
@<TRIPOS>SUBSTRUCTURE
     1 ALC1       15 GROUP        1 X    ALC  0     ROOT ALC X 1
     2 SEC2        1 GROUP        1 X    SEC  0     **** SEC X 2
     3 LYC4       87 GROUP        1 X    LYC  0     **** LYC X 4
     4 GLC5       21 GROUP        1 X    GLC  0     **** GLC X 6
     5 ALP1       17 GROUP        1 Y    ALP  0     ROOT ALP Y 8
     6 SEP2        3 GROUP        1 Y    SEP  0     **** SEP Y 9
     7 LYP4       89 GROUP        1 Y    LYP  0     **** LYP Y 11
     8 GLP5       23 GROUP        1 Y    GLP  0     **** GLP Y 13
     9 ALL1       16 GROUP        1 Z    ALL  0     ROOT ALL Z 15
    10 SEL2        2 GROUP        1 Z    SEL  0     **** SEL Z 16
    11 LYL4       88 GROUP        1 Z    LYL  0     **** LYL Z 18
    12 GLL5       22 GROUP        1 Z    GLL  0     **** GLL Z 20
@<TRIPOS>SET

