#    Name: 2jah_NDP_1_ligand
#    Modification time : Tue Mar 25 19:49:18 2014

@<TRIPOS>MOLECULE
2jah_NDP_1_ligand
   74    78     1     0     0
SMALL
NO_CHARGES


@<TRIPOS>ATOM
      1 PA         25.5180  -10.5820   12.4240 P.3       1 NDP1248     0.0000 
      2 O1A        25.6520  -11.6230   11.3710 O.co2     1 NDP1248     0.0000 
      3 O2A        24.1160  -10.0960   12.5370 O.co2     1 NDP1248     0.0000 
      4 O5B        26.4720   -9.3360   12.0760 O.3       1 NDP1248     0.0000 
      5 C5B        27.7090   -9.5230   11.4350 C.3       1 NDP1248     0.0000 
      6 C4B        27.9470   -8.2970   10.5700 C.3       1 NDP1248     0.0000 
      7 O4B        29.2090   -8.4040    9.9590 O.3       1 NDP1248     0.0000 
      8 C3B        26.9220   -8.1960    9.4600 C.3       1 NDP1248     0.0000 
      9 O3B        26.5500   -6.8320    9.3240 O.3       1 NDP1248     0.0000 
     10 C2B        27.6660   -8.6340    8.2220 C.3       1 NDP1248     0.0000 
     11 O2B        27.1410   -7.8770    7.1680 O.3       1 NDP1248     0.0000 
     12 C1B        29.0750   -8.1900    8.5680 C.3       1 NDP1248     0.0000 
     13 N9A        30.1430   -8.9040    7.8560 N.pl3     1 NDP1248     0.0000 
     14 C8A        30.3940  -10.2500    7.8460 C.2       1 NDP1248     0.0000 
     15 N7A        31.4910  -10.4680    7.0760 N.2       1 NDP1248     0.0000 
     16 C5A        31.9480   -9.2770    6.6170 C.ar      1 NDP1248     0.0000 
     17 C6A        33.0290   -8.9300    5.8090 C.ar      1 NDP1248     0.0000 
     18 N6A        33.8920   -9.8690    5.3880 N.pl3     1 NDP1248     0.0000 
     19 N1A        33.2520   -7.5940    5.5130 N.ar      1 NDP1248     0.0000 
     20 C2A        32.4090   -6.6220    6.0240 C.ar      1 NDP1248     0.0000 
     21 N3A        31.3320   -6.9660    6.8240 N.ar      1 NDP1248     0.0000 
     22 C4A        31.1160   -8.2800    7.1200 C.ar      1 NDP1248     0.0000 
     23 O3         26.0610  -11.1620   13.8220 O.3       1 NDP1248     0.0000 
     24 PN         26.5230  -10.3090   15.1140 P.3       1 NDP1248     0.0000 
     25 O1N        26.2690  -11.1840   16.2920 O.co2     1 NDP1248     0.0000 
     26 O2N        25.8730   -8.9730   15.0820 O.co2     1 NDP1248     0.0000 
     27 O5D        28.0950  -10.2410   14.8070 O.3       1 NDP1248     0.0000 
     28 C5D        28.8780   -9.0770   14.9670 C.3       1 NDP1248     0.0000 
     29 C4D        30.0960   -9.3740   15.8450 C.3       1 NDP1248     0.0000 
     30 O4D        29.6440   -9.7680   17.1220 O.3       1 NDP1248     0.0000 
     31 C3D        30.9950  -10.5000   15.3430 C.3       1 NDP1248     0.0000 
     32 O3D        32.3310  -10.0560   15.4300 O.3       1 NDP1248     0.0000 
     33 C2D        30.7600  -11.6360   16.3140 C.3       1 NDP1248     0.0000 
     34 O2D        31.8640  -12.5310   16.3800 O.3       1 NDP1248     0.0000 
     35 C1D        30.4580  -10.8340   17.5830 C.3       1 NDP1248     0.0000 
     36 N1N        29.7550  -11.5880   18.6360 N.pl3     1 NDP1248     0.0000 
     37 C2N        28.4730  -12.0480   18.4650 C.2       1 NDP1248     0.0000 
     38 C3N        27.7940  -12.7250   19.4810 C.2       1 NDP1248     0.0000 
     39 C7N        26.4030  -13.2630   19.2960 C.2       1 NDP1248     0.0000 
     40 O7N        26.0070  -14.3210   20.1310 O.2       1 NDP1248     0.0000 
     41 N7N        25.5750  -12.7700   18.3680 N.am      1 NDP1248     0.0000 
     42 C4N        28.4560  -12.9730   20.8160 C.3       1 NDP1248     0.0000 
     43 C5N        29.8480  -12.4180   20.8890 C.2       1 NDP1248     0.0000 
     44 C6N        30.4300  -11.7550   19.8170 C.2       1 NDP1248     0.0000 
     45 P2B        27.3530   -8.1980    5.6100 P.3       1 NDP1248     0.0000 
     46 O1X        26.4020   -7.2480    4.9070 O.co2     1 NDP1248     0.0000 
     47 O2X        28.7770   -7.9080    5.2520 O.co2     1 NDP1248     0.0000 
     48 O3X        26.9850   -9.6250    5.2670 O.co2     1 NDP1248     0.0000 
     49 H          27.7137  -10.3961   10.7853 H         1 NDP1248     0.0000 
     50 H          28.5354   -9.6006   12.1389 H         1 NDP1248     0.0000 
     51 H          27.8786   -7.4192   11.1814 H         1 NDP1248     0.0000 
     52 H          26.1317   -8.8425    9.6516 H         1 NDP1248     0.0000 
     53 H          27.6174   -9.6511    8.1326 H         1 NDP1248     0.0000 
     54 H          29.1398   -7.1206    8.3622 H         1 NDP1248     0.0000 
     55 H          29.8811  -10.9165    8.3046 H         1 NDP1248     0.0000 
     56 H          34.3292   -9.7004    4.5045 H         1 NDP1248     0.0000 
     57 H          34.0203  -10.6529    5.9956 H         1 NDP1248     0.0000 
     58 H          32.5857   -5.6249    5.8055 H         1 NDP1248     0.0000 
     59 H          28.3167   -8.2625   15.4485 H         1 NDP1248     0.0000 
     60 H          29.2515   -8.6931   14.0061 H         1 NDP1248     0.0000 
     61 H          30.6940   -8.4732   15.9243 H         1 NDP1248     0.0000 
     62 H          30.6888  -10.7783   14.3857 H         1 NDP1248     0.0000 
     63 H          29.8322  -12.1035   16.0143 H         1 NDP1248     0.0000 
     64 H          31.3962  -10.4432   17.9486 H         1 NDP1248     0.0000 
     65 H          27.9845  -11.8934   17.5574 H         1 NDP1248     0.0000 
     66 H          24.6714  -13.1950   18.3141 H         1 NDP1248     0.0000 
     67 H          25.9339  -12.0207   17.8114 H         1 NDP1248     0.0000 
     68 H          28.4839  -14.0585   21.0067 H         1 NDP1248     0.0000 
     69 H          27.8398  -12.5225   21.6115 H         1 NDP1248     0.0000 
     70 H          30.3442  -12.5564   21.7754 H         1 NDP1248     0.0000 
     71 H          31.3951  -11.3815   19.9197 H         1 NDP1248     0.0000 
     72 H          26.0697   -6.7809    8.4484 H         1 NDP1248     0.0000 
     73 H          32.3735   -9.5283   16.2783 H         1 NDP1248     0.0000 
     74 H          31.7660  -13.1221   15.5794 H         1 NDP1248     0.0000 
@<TRIPOS>BOND
     1    2    1 ar   
     2    3    1 ar   
     3    4    1 1    
     4   23    1 1    
     5    5    4 1    
     6    6    5 1    
     7   49    5 1    
     8   50    5 1    
     9    7    6 1    
    10    8    6 1    
    11   51    6 1    
    12   12    7 1    
    13    9    8 1    
    14   10    8 1    
    15   52    8 1    
    16   72    9 1    
    17   11   10 1    
    18   12   10 1    
    19   53   10 1    
    20   45   11 1    
    21   13   12 1    
    22   54   12 1    
    23   14   13 1    
    24   22   13 1    
    25   15   14 2    
    26   55   14 1    
    27   16   15 1    
    28   17   16 ar   
    29   22   16 ar   
    30   18   17 1    
    31   19   17 ar   
    32   56   18 1    
    33   57   18 1    
    34   20   19 ar   
    35   21   20 ar   
    36   58   20 1    
    37   22   21 ar   
    38   24   23 1    
    39   25   24 ar   
    40   26   24 ar   
    41   27   24 1    
    42   28   27 1    
    43   29   28 1    
    44   59   28 1    
    45   60   28 1    
    46   30   29 1    
    47   31   29 1    
    48   61   29 1    
    49   35   30 1    
    50   32   31 1    
    51   33   31 1    
    52   62   31 1    
    53   73   32 1    
    54   34   33 1    
    55   35   33 1    
    56   63   33 1    
    57   74   34 1    
    58   36   35 1    
    59   64   35 1    
    60   37   36 1    
    61   44   36 1    
    62   38   37 2    
    63   65   37 1    
    64   39   38 1    
    65   42   38 1    
    66   40   39 2    
    67   41   39 am   
    68   66   41 1    
    69   67   41 1    
    70   43   42 1    
    71   68   42 1    
    72   69   42 1    
    73   44   43 2    
    74   70   43 1    
    75   71   44 1    
    76   46   45 ar   
    77   47   45 ar   
    78   48   45 ar   
@<TRIPOS>SUBSTRUCTURE
     1 NDP1248     1 GROUP   
@<TRIPOS>SET

