#    Name: 1ia9_ANP_2_INTS_M
#    Modification time : Tue Mar 25 06:51:44 2014

@<TRIPOS>MOLECULE
1ia9_ANP_2_INTS_M
   63     0    15     0     0
SMALL
NO_CHARGES


@<TRIPOS>ATOM
      1 N          53.7200   40.6555   58.4650 N.am      2 SEC2        0.0000 
      2 N          54.9240   41.1610   57.9420 N.am     12 SEL2        0.0000 
      3 N          52.5160   40.1500   58.9880 N.am      7 SEP2        0.0000 
      4 N          54.9750   38.6030   57.6250 N.am      2 SEC2        0.0000 
      5 N          56.2310   39.1690   57.3390 N.am     12 SEL2        0.0000 
      6 N          53.7190   38.0370   57.9110 N.am      7 SEP2        0.0000 
      7 N          59.6215   43.0625   54.5370 N.am      2 SEC2        0.0000 
      8 N          58.0090   42.4240   54.7320 N.am     12 SEL2        0.0000 
      9 N          61.2340   43.7010   54.3420 N.am      7 SEP2        0.0000 
     10 OD1        58.1045   42.3985   56.9740 O.co2     3 ASC3        0.0000 
     11 OD1        57.0510   41.4830   56.8020 O.co2    13 ASL3        0.0000 
     12 OD1        59.1580   43.3140   57.1460 O.co2     8 ASP3        0.0000 
     13 NZ         56.9005   46.4370   57.1615 N.4       4 LYC4        0.0000 
     14 NZ         57.0350   44.8820   56.6100 N.4      14 LYL4        0.0000 
     15 NZ         56.7660   47.9920   57.7130 N.4       9 LYP4        0.0000 
     16 N          56.9005   46.4370   57.1615 N.am      2 SEC2        0.0000 
     17 N          57.0350   44.8820   56.6100 N.am     12 SEL2        0.0000 
     18 N          56.7660   47.9920   57.7130 N.am      7 SEP2        0.0000 
     19 CA         52.0135   46.3750   52.4785 C.3       5 GLC5        0.0000 
     20 CA         53.8190   45.8170   53.0560 C.3      15 GLL5        0.0000 
     21 CA         50.2080   46.9330   51.9010 C.3      10 GLP5        0.0000 
     22 CA         57.1475   46.4535   51.7095 C.3       5 GLC5        0.0000 
     23 CA         55.1650   45.8790   52.3230 C.3      15 GLL5        0.0000 
     24 CA         59.1300   47.0280   51.0960 C.3      10 GLP5        0.0000 
     25 CA         56.9095   47.3575   50.7080 C.3       5 GLC5        0.0000 
     26 CA         55.1000   47.1720   51.5450 C.3      15 GLL5        0.0000 
     27 CA         58.7190   47.5430   49.8710 C.3      10 GLP5        0.0000 
     28 CA         52.6280   49.0535   52.6625 C.3       5 GLC5        0.0000 
     29 CA         54.3010   48.0630   52.4920 C.3      15 GLL5        0.0000 
     30 CA         50.9550   50.0440   52.8330 C.3      10 GLP5        0.0000 
     31 N          56.6200   48.7425   56.4000 N.am      2 SEC2        0.0000 
     32 N          56.4740   49.4930   55.0870 N.am     12 SEL2        0.0000 
     33 CA         58.1820   49.8555   55.0945 C.3       5 GLC5        0.0000 
     34 CA         56.2440   50.5610   54.3810 C.3      15 GLL5        0.0000 
     35 CA         60.1200   49.1500   55.8080 C.3      10 GLP5        0.0000 
     36 CA         55.7480   53.9040   54.7210 C.3       5 GLC5        0.0000 
     37 CA         56.6330   51.8940   54.4490 C.3      15 GLL5        0.0000 
     38 CA         54.8630   55.9140   54.9930 C.3      10 GLP5        0.0000 
     39 O          57.7765   51.5760   56.7430 O.2       1 ALC1        0.0000 
     40 O          57.4300   52.3280   55.4490 O.2      11 ALL1        0.0000 
     41 O          58.1230   50.8240   58.0370 O.2       6 ALP1        0.0000 
     42 O          57.1300   53.7200   56.1070 O.2       1 ALC1        0.0000 
     43 O          56.8300   55.1120   56.7650 O.2       6 ALP1        0.0000 
     44 N          56.3240   54.1755   53.3425 N.am      2 SEC2        0.0000 
     45 N          56.1930   52.7810   53.5020 N.am     12 SEL2        0.0000 
     46 N          56.4550   55.5700   53.1830 N.am      7 SEP2        0.0000 
     47 CA         54.2790   52.5895   54.2425 C.3       5 GLC5        0.0000 
     48 CA         55.3910   52.4020   52.4780 C.3      15 GLL5        0.0000 
     49 CA         53.1670   52.7770   56.0070 C.3      10 GLP5        0.0000 
     50 CA         54.1740   54.0255   52.7270 C.3       5 GLC5        0.0000 
     51 CA         52.9570   55.6490   52.9760 C.3      10 GLP5        0.0000 
     52 CA         56.3655   54.1980   52.2915 C.3       5 GLC5        0.0000 
     53 CA         57.3400   55.9940   52.1050 C.3      10 GLP5        0.0000 
     54 CA         53.1800   50.1120   53.0660 C.3       5 GLC5        0.0000 
     55 CA         55.4050   50.1800   53.2990 C.3      15 GLL5        0.0000 
     56 CA         52.6680   44.1350   53.2007 C.3       5 GLC5        0.0000 
     57 CA         51.5070   42.7760   52.6500 C.3      10 GLP5        0.0000 
     58 CA         52.7600   46.6405   54.9707 C.3       5 GLC5        0.0000 
     59 CA         53.8390   45.1710   54.4470 C.3      15 GLL5        0.0000 
     60 CA         51.6910   47.7870   56.1900 C.3      10 GLP5        0.0000 
     61 CA         58.2793   51.8447   53.8465 C.3       5 GLC5        0.0000 
     62 CA         60.1200   52.4620   53.2780 C.3      10 GLP5        0.0000 
     63 CA         54.5444   51.7404   54.9320 C.3       5 GLC5        0.0000 
@<TRIPOS>BOND
@<TRIPOS>SUBSTRUCTURE
     1 ALC1       39 GROUP        1 X    ALC  0     ROOT ALC X 1
     2 SEC2        1 GROUP        1 X    SEC  0     **** SEC X 2
     3 ASC3       10 GROUP        1 X    ASC  0     **** ASC X 3
     4 LYC4       13 GROUP        1 X    LYC  0     **** LYC X 4
     5 GLC5       19 GROUP        1 X    GLC  0     **** GLC X 6
     6 ALP1       41 GROUP        1 Y    ALP  0     ROOT ALP Y 8
     7 SEP2        3 GROUP        1 Y    SEP  0     **** SEP Y 9
     8 ASP3       12 GROUP        1 Y    ASP  0     **** ASP Y 10
     9 LYP4       15 GROUP        1 Y    LYP  0     **** LYP Y 11
    10 GLP5       21 GROUP        1 Y    GLP  0     **** GLP Y 13
    11 ALL1       40 GROUP        1 Z    ALL  0     ROOT ALL Z 15
    12 SEL2        2 GROUP        1 Z    SEL  0     **** SEL Z 16
    13 ASL3       11 GROUP        1 Z    ASL  0     **** ASL Z 17
    14 LYL4       14 GROUP        1 Z    LYL  0     **** LYL Z 18
    15 GLL5       20 GROUP        1 Z    GLL  0     **** GLL Z 20
@<TRIPOS>SET

