#    Name: 1ia9_ANP_2_ligand
#    Modification time : Tue Mar 25 06:51:44 2014

@<TRIPOS>MOLECULE
1ia9_ANP_2_ligand
   43    45     1     0     0
SMALL
NO_CHARGES


@<TRIPOS>ATOM
      1 PG         56.2930   40.5890   57.7990 P.3       1 ANP2003     0.0000 
      2 O1G        54.9240   41.1610   57.9420 O.co2     1 ANP2003     0.0000 
      3 O2G        57.1660   40.6690   59.1390 O.co2     1 ANP2003     0.0000 
      4 O3G        56.2310   39.1690   57.3390 O.co2     1 ANP2003     0.0000 
      5 PB         56.7860   41.9010   55.3980 P.3       1 ANP2003     0.0000 
      6 O1B        58.0090   42.4240   54.7320 O.co2     1 ANP2003     0.0000 
      7 O2B        56.0520   40.7640   54.5260 O.co2     1 ANP2003     0.0000 
      8 N3B        57.0510   41.4830   56.8020 N.4       1 ANP2003     0.0000 
      9 PA         55.6970   44.4340   56.1670 P.3       1 ANP2003     0.0000 
     10 O1A        54.7740   44.2860   57.3060 O.co2     1 ANP2003     0.0000 
     11 O2A        57.0350   44.8820   56.6100 O.co2     1 ANP2003     0.0000 
     12 O3A        55.7420   43.0350   55.4550 O.3       1 ANP2003     0.0000 
     13 O5'        55.1180   45.3960   55.0340 O.3       1 ANP2003     0.0000 
     14 C5'        53.8390   45.1710   54.4470 C.3       1 ANP2003     0.0000 
     15 C4'        53.8190   45.8170   53.0560 C.3       1 ANP2003     0.0000 
     16 O4'        53.3870   47.1900   53.1810 O.3       1 ANP2003     0.0000 
     17 C3'        55.1650   45.8790   52.3230 C.3       1 ANP2003     0.0000 
     18 O3'        55.4390   44.7790   51.4560 O.3       1 ANP2003     0.0000 
     19 C2'        55.1000   47.1720   51.5450 C.3       1 ANP2003     0.0000 
     20 O2'        54.4600   47.0380   50.2670 O.3       1 ANP2003     0.0000 
     21 C1'        54.3010   48.0630   52.4920 C.3       1 ANP2003     0.0000 
     22 N9         55.1680   48.8950   53.4300 N.pl3     1 ANP2003     0.0000 
     23 C8         55.8230   48.4730   54.5290 C.2       1 ANP2003     0.0000 
     24 N7         56.4740   49.4930   55.0870 N.2       1 ANP2003     0.0000 
     25 C5         56.2440   50.5610   54.3810 C.ar      1 ANP2003     0.0000 
     26 C6         56.6330   51.8940   54.4490 C.ar      1 ANP2003     0.0000 
     27 N6         57.4300   52.3280   55.4490 N.pl3     1 ANP2003     0.0000 
     28 N1         56.1930   52.7810   53.5020 N.ar      1 ANP2003     0.0000 
     29 C2         55.3910   52.4020   52.4780 C.ar      1 ANP2003     0.0000 
     30 N3         55.0110   51.1150   52.3970 N.ar      1 ANP2003     0.0000 
     31 C4         55.4050   50.1800   53.2990 C.ar      1 ANP2003     0.0000 
     32 H          53.0346   45.6196   55.0322 H         1 ANP2003     0.0000 
     33 H          53.6266   44.1080   54.3217 H         1 ANP2003     0.0000 
     34 H          53.1165   45.2827   52.4266 H         1 ANP2003     0.0000 
     35 H          55.9343   46.0111   53.0811 H         1 ANP2003     0.0000 
     36 H          56.0887   47.5757   51.4892 H         1 ANP2003     0.0000 
     37 H          53.7213   48.7520   51.8541 H         1 ANP2003     0.0000 
     38 H          55.8164   47.5527   54.8612 H         1 ANP2003     0.0000 
     39 H          57.6897   51.6457   56.1324 H         1 ANP2003     0.0000 
     40 H          57.6897   53.2932   55.4173 H         1 ANP2003     0.0000 
     41 H          55.0799   53.0926   51.7751 H         1 ANP2003     0.0000 
     42 H          55.2670   45.1270   50.5344 H         1 ANP2003     0.0000 
     43 H          53.4909   47.2097   50.4437 H         1 ANP2003     0.0000 
@<TRIPOS>BOND
     1    2    1 ar   
     2    3    1 ar   
     3    4    1 ar   
     4    8    1 1    
     5    6    5 ar   
     6    7    5 ar   
     7    8    5 1    
     8   12    5 1    
     9   10    9 ar   
    10   11    9 ar   
    11   12    9 1    
    12   13    9 1    
    13   14   13 1    
    14   15   14 1    
    15   32   14 1    
    16   33   14 1    
    17   16   15 1    
    18   17   15 1    
    19   34   15 1    
    20   21   16 1    
    21   18   17 1    
    22   19   17 1    
    23   35   17 1    
    24   42   18 1    
    25   20   19 1    
    26   21   19 1    
    27   36   19 1    
    28   43   20 1    
    29   22   21 1    
    30   37   21 1    
    31   23   22 1    
    32   31   22 1    
    33   24   23 2    
    34   38   23 1    
    35   25   24 1    
    36   26   25 ar   
    37   31   25 ar   
    38   27   26 1    
    39   28   26 ar   
    40   39   27 1    
    41   40   27 1    
    42   29   28 ar   
    43   30   29 ar   
    44   41   29 1    
    45   31   30 ar   
@<TRIPOS>SUBSTRUCTURE
     1 ANP2003     1 GROUP   
@<TRIPOS>SET

