#    Name: 2vd0_D27_1_INTS_M
#    Modification time : Tue Mar 25 01:30:38 2014

@<TRIPOS>MOLECULE
2vd0_D27_1_INTS_M
   56     0     9     0     0
SMALL
NO_CHARGES


@<TRIPOS>ATOM
      1 CA        130.8235   12.0810   -0.6625 C.3       3 GLC5        0.0000 
      2 CA        129.2280   13.0100   -1.8970 C.3       9 GLL5        0.0000 
      3 CA        132.4190   11.1520    0.5720 C.3       6 GLP5        0.0000 
      4 CA        130.7435   14.2105   -2.4300 C.3       3 GLC5        0.0000 
      5 CA        132.2590   15.4110   -2.9630 C.3       6 GLP5        0.0000 
      6 CA        127.6295   12.1215   -1.9495 C.3       3 GLC5        0.0000 
      7 CA        126.0310   11.2330   -2.0020 C.3       6 GLP5        0.0000 
      8 CA        130.3555   11.3610   -2.5065 C.3       3 GLC5        0.0000 
      9 CA        131.4830    9.7120   -3.1160 C.3       6 GLP5        0.0000 
     10 CA        127.0080   12.9360   -1.2325 C.3       3 GLC5        0.0000 
     11 CA        128.5960   13.4150   -0.7750 C.3       9 GLL5        0.0000 
     12 CA        125.4200   12.4570   -1.6900 C.3       6 GLP5        0.0000 
     13 NZ        126.3145   19.7160   -2.7690 N.4       2 LYC4        0.0000 
     14 NZ        126.0130   18.4920   -2.9050 N.4       8 LYL4        0.0000 
     15 NZ        127.3790   21.6830   -1.8590 N.4       5 LYP4        0.0000 
     16 N         126.3145   19.7160   -2.7690 N.am      1 SEC2        0.0000 
     17 N         126.0130   18.4920   -2.9050 N.am      7 SEL2        0.0000 
     18 N         126.6160   20.9400   -2.6330 N.am      4 SEP2        0.0000 
     19 CA        125.9335   13.2810    2.4415 C.3       3 GLC5        0.0000 
     20 CA        126.7770   14.0940    3.9840 C.3       9 GLL5        0.0000 
     21 CA        125.0900   12.4680    0.8990 C.3       6 GLP5        0.0000 
     22 CA        125.3975   13.0985    4.8845 C.3       3 GLC5        0.0000 
     23 CA        124.0180   12.1030    5.7850 C.3       6 GLP5        0.0000 
     24 CA        125.7870   10.3030    4.6130 C.3       3 GLC5        0.0000 
     25 CA        127.5950    9.7480    4.3480 C.3       9 GLL5        0.0000 
     26 CA        123.9790   10.8580    4.8780 C.3       6 GLP5        0.0000 
     27 CA        126.7190   17.7060   -7.0755 C.3       3 GLC5        0.0000 
     28 CA        128.4370   17.8440   -6.2680 C.3       9 GLL5        0.0000 
     29 CA        125.0010   17.5680   -7.8830 C.3       6 GLP5        0.0000 
     30 CA        130.9800   17.0760   -7.5640 C.3       3 GLC5        0.0000 
     31 CA        129.2330   16.7130   -6.3680 C.3       9 GLL5        0.0000 
     32 CA        132.7270   17.4390   -8.7600 C.3       6 GLP5        0.0000 
     33 CA        126.0670   17.5995   -5.5407 C.3       3 GLC5        0.0000 
     34 CA        127.6440   17.1120   -4.1000 C.3       9 GLL5        0.0000 
     35 CA        124.4870   17.6230   -6.4590 C.3       6 GLP5        0.0000 
     36 CA        130.5500   15.6378   -3.8620 C.3       3 GLC5        0.0000 
     37 CA        128.4440   15.9430   -4.1890 C.3       9 GLL5        0.0000 
     38 CA        126.7622   12.2885    1.9247 C.3       3 GLC5        0.0000 
     39 CA        128.5360   11.4150    3.0060 C.3       9 GLL5        0.0000 
     40 CA        130.4169   12.4490    2.1774 C.3       3 GLC5        0.0000 
     41 CA        128.3330   12.8030    2.8950 C.3       9 GLL5        0.0000 
     42 CA        132.4310   12.1370    2.0520 C.3       6 GLP5        0.0000 
     43 CA        126.7873   12.7532    0.9865 C.3       3 GLC5        0.0000 
     44 CA        128.3710   13.4130    1.6550 C.3       9 GLL5        0.0000 
     45 CA        130.5800   11.2319    0.8816 C.3       3 GLC5        0.0000 
     46 CA        128.5980   12.6640    0.4930 C.3       9 GLL5        0.0000 
     47 CA        126.9417   11.7152    1.0573 C.3       3 GLC5        0.0000 
     48 CA        128.8080   11.2670    0.5900 C.3       9 GLL5        0.0000 
     49 CA        129.0908    9.8792   -0.4458 C.3       3 GLC5        0.0000 
     50 CA        129.3880    8.7960   -2.1070 C.3       6 GLP5        0.0000 
     51 CA        128.6050   18.1894   -3.1249 C.3       3 GLC5        0.0000 
     52 CA        129.3630   19.0950   -1.6050 C.3       6 GLP5        0.0000 
     53 CA        128.2900   18.0203   -8.0245 C.3       3 GLC5        0.0000 
     54 CA        127.7450   18.7620   -9.7310 C.3       6 GLP5        0.0000 
     55 CA        127.5765   15.6579   -6.6468 C.3       3 GLC5        0.0000 
     56 CA        126.1160   15.0270   -7.7290 C.3       6 GLP5        0.0000 
@<TRIPOS>BOND
@<TRIPOS>SUBSTRUCTURE
     1 SEC2       16 GROUP        1 X    SEC  0     ROOT SEC X 2
     2 LYC4       13 GROUP        1 X    LYC  0     **** LYC X 4
     3 GLC5        1 GROUP        1 X    GLC  0     **** GLC X 6
     4 SEP2       18 GROUP        1 Y    SEP  0     ROOT SEP Y 9
     5 LYP4       15 GROUP        1 Y    LYP  0     **** LYP Y 11
     6 GLP5        3 GROUP        1 Y    GLP  0     **** GLP Y 13
     7 SEL2       17 GROUP        1 Z    SEL  0     ROOT SEL Z 16
     8 LYL4       14 GROUP        1 Z    LYL  0     **** LYL Z 18
     9 GLL5        2 GROUP        1 Z    GLL  0     **** GLL Z 20
@<TRIPOS>SET

