#    Name: 2vd0_D27_1_ligand
#    Modification time : Tue Mar 25 01:30:38 2014

@<TRIPOS>MOLECULE
2vd0_D27_1_ligand
   40    41     1     0     0
SMALL
NO_CHARGES


@<TRIPOS>ATOM
      1 C1        127.6440   17.1120   -4.1000 C.ar      1 D271200     0.0000 
      2 C2        128.4440   15.9430   -4.1890 C.ar      1 D271200     0.0000 
      3 C3        126.7620   17.3720   -2.9450 C.2       1 D271200     0.0000 
      4 N4        128.5030   15.0220   -3.1240 N.am      1 D271200     0.0000 
      5 C5        129.1950   13.8360   -3.1030 C.2       1 D271200     0.0000 
      6 C6        129.2280   13.0100   -1.8970 C.2       1 D271200     0.0000 
      7 C7        128.3330   12.8030    2.8950 C.ar      1 D271200     0.0000 
      8 C8        128.5960   13.4150   -0.7750 C.2       1 D271200     0.0000 
      9 C9        128.5360   11.4150    3.0060 C.ar      1 D271200     0.0000 
     10 C10       128.3710   13.4130    1.6550 C.ar      1 D271200     0.0000 
     11 O11       126.6760   16.5770   -2.0340 O.co2     1 D271200     0.0000 
     12 O12       129.8130   13.4120   -4.0640 O.2       1 D271200     0.0000 
     13 C13       128.5980   12.6640    0.4930 C.ar      1 D271200     0.0000 
     14 C14       128.7790   10.6580    1.8410 C.ar      1 D271200     0.0000 
     15 O15       126.0130   18.4920   -2.9050 O.co2     1 D271200     0.0000 
     16 C16       128.8080   11.2670    0.5900 C.ar      1 D271200     0.0000 
     17 O17       128.1150   13.5690    4.0050 O.3       1 D271200     0.0000 
     18 C18       127.6500   18.0400   -5.1450 C.ar      1 D271200     0.0000 
     19 O19       128.5230   10.8450    4.2600 O.3       1 D271200     0.0000 
     20 C20       129.2380   15.7860   -5.3330 C.ar      1 D271200     0.0000 
     21 C21       126.7770   14.0940    3.9840 C.3       1 D271200     0.0000 
     22 C22       127.5950    9.7480    4.3480 C.3       1 D271200     0.0000 
     23 C23       128.4370   17.8440   -6.2680 C.ar      1 D271200     0.0000 
     24 C24       129.2330   16.7130   -6.3680 C.ar      1 D271200     0.0000 
     25 H         127.9445   15.2874   -2.2439 H         1 D271200     0.0000 
     26 H         129.7476   12.1261   -1.9539 H         1 D271200     0.0000 
     27 H         128.0541   14.3170   -0.7538 H         1 D271200     0.0000 
     28 H         128.2311   14.4342    1.5756 H         1 D271200     0.0000 
     29 H         128.9358    9.6434    1.9257 H         1 D271200     0.0000 
     30 H         128.9779   10.7224   -0.2548 H         1 D271200     0.0000 
     31 H         127.0559   18.8843   -5.0737 H         1 D271200     0.0000 
     32 H         129.8496   14.9461   -5.4049 H         1 D271200     0.0000 
     33 H         128.4314   18.5379   -7.0289 H         1 D271200     0.0000 
     34 H         129.8142   16.5607   -7.1993 H         1 D271200     0.0000 
     35 H         126.5880   14.6613    4.7855 H         1 D271200     0.0000 
     36 H         126.6136   14.6623    3.1776 H         1 D271200     0.0000 
     37 H         126.0923   13.3653    3.9726 H         1 D271200     0.0000 
     38 H         127.8183    9.0198    3.7000 H         1 D271200     0.0000 
     39 H         127.5904    9.3377    5.2599 H         1 D271200     0.0000 
     40 H         126.6581   10.0375    4.1522 H         1 D271200     0.0000 
@<TRIPOS>BOND
     1    2    1 ar   
     2    3    1 1    
     3   18    1 ar   
     4    4    2 1    
     5   20    2 ar   
     6   11    3 ar   
     7   15    3 ar   
     8    5    4 am   
     9   25    4 1    
    10    6    5 1    
    11   12    5 2    
    12    8    6 2    
    13   26    6 1    
    14    9    7 ar   
    15   10    7 ar   
    16   17    7 1    
    17   13    8 1    
    18   27    8 1    
    19   14    9 ar   
    20   19    9 1    
    21   13   10 ar   
    22   28   10 1    
    23   16   13 ar   
    24   16   14 ar   
    25   29   14 1    
    26   30   16 1    
    27   21   17 1    
    28   23   18 ar   
    29   31   18 1    
    30   22   19 1    
    31   24   20 ar   
    32   32   20 1    
    33   35   21 1    
    34   36   21 1    
    35   37   21 1    
    36   38   22 1    
    37   39   22 1    
    38   40   22 1    
    39   24   23 ar   
    40   33   23 1    
    41   34   24 1    
@<TRIPOS>SUBSTRUCTURE
     1 D271200     1 GROUP   
@<TRIPOS>SET

