#    Name: 3akl_ANP_1_INTS_M
#    Modification time : Tue Mar 25 12:03:44 2014

@<TRIPOS>MOLECULE
3akl_ANP_1_INTS_M
   57     0    15     0     0
SMALL
NO_CHARGES


@<TRIPOS>ATOM
      1 Zn         14.8780    1.0295   35.7460 Zn        4 ZIC7        0.0000 
      2 Zn         14.6850    2.1190   36.0600 Zn       14 ZIL7        0.0000 
      3 Zn         15.0710   -0.0600   35.4320 Zn        9 ZIP7        0.0000 
      4 N          13.0375    2.2260   36.5315 N.am      2 SEC2        0.0000 
      5 N          14.6850    2.1190   36.0600 N.am     12 SEL2        0.0000 
      6 N          11.3900    2.3330   37.0030 N.am      7 SEP2        0.0000 
      7 NZ         18.6750    2.2170   31.9415 N.4       3 LYC4        0.0000 
      8 NZ         18.2170    2.1820   33.2410 N.4      13 LYL4        0.0000 
      9 NZ         19.1330    2.2520   30.6420 N.4       8 LYP4        0.0000 
     10 NZ         20.3555    1.0300   35.7670 N.4       3 LYC4        0.0000 
     11 NZ         19.4450    0.3940   35.1500 N.4      13 LYL4        0.0000 
     12 NZ         21.2660    1.6660   36.3840 N.4       8 LYP4        0.0000 
     13 N          20.3555    1.0300   35.7670 N.am      2 SEC2        0.0000 
     14 N          19.4450    0.3940   35.1500 N.am     12 SEL2        0.0000 
     15 N          21.2660    1.6660   36.3840 N.am      7 SEP2        0.0000 
     16 Zn         16.0650    0.5255   35.3275 Zn        4 ZIC7        0.0000 
     17 Zn         17.0590    1.1110   35.2230 Zn       14 ZIL7        0.0000 
     18 CA         19.5170   -0.6085   31.6400 C.3       5 GLC5        0.0000 
     19 CA         18.2200   -1.7300   33.0710 C.3      15 GLL5        0.0000 
     20 CA         20.8140    0.5130   30.2090 C.3      10 GLP5        0.0000 
     21 CA         19.8725   -2.5335   32.7460 C.3       5 GLC5        0.0000 
     22 CA         21.5250   -3.3370   32.4210 C.3      10 GLP5        0.0000 
     23 CA         16.2745   -1.9795   30.7275 C.3       5 GLC5        0.0000 
     24 CA         17.0720   -2.6280   32.6310 C.3      15 GLL5        0.0000 
     25 CA         15.4770   -1.3310   28.8240 C.3      10 GLP5        0.0000 
     26 CA         18.8395   -5.1580   31.5075 C.3       5 GLC5        0.0000 
     27 CA         17.3920   -4.9600   33.0550 C.3      15 GLL5        0.0000 
     28 CA         20.2870   -5.3560   29.9600 C.3      10 GLP5        0.0000 
     29 CA         19.4585   -4.1485   32.7380 C.3       5 GLC5        0.0000 
     30 CA         22.6715   -8.4680   34.5600 C.3       5 GLC5        0.0000 
     31 CA         21.1380   -7.2710   35.2030 C.3      15 GLL5        0.0000 
     32 CA         24.2050   -9.6650   33.9170 C.3      10 GLP5        0.0000 
     33 O          22.0970   -6.0270   37.2055 O.2       1 ALC1        0.0000 
     34 O          22.0500   -7.1960   36.1640 O.2      11 ALL1        0.0000 
     35 O          22.1440   -4.8580   38.2470 O.2       6 ALP1        0.0000 
     36 O          23.2690   -8.1025   36.3865 O.2       1 ALC1        0.0000 
     37 O          24.4880   -9.0090   36.6090 O.2       6 ALP1        0.0000 
     38 N          21.7500   -9.6325   34.7130 N.am      2 SEC2        0.0000 
     39 N          21.0800   -8.3570   34.4160 N.am     12 SEL2        0.0000 
     40 N          22.4200  -10.9080   35.0100 N.am      7 SEP2        0.0000 
     41 CA         22.1870   -9.0525   33.6880 C.3       5 GLC5        0.0000 
     42 CA         20.1690   -8.4400   33.4590 C.3      15 GLL5        0.0000 
     43 CA         19.0090   -9.8300   33.2000 C.3       5 GLC5        0.0000 
     44 CA         17.8490  -11.2200   32.9410 C.3      10 GLP5        0.0000 
     45 CA         20.4050   -4.8465   33.2020 C.3       5 GLC5        0.0000 
     46 CA         19.2850   -6.3560   33.9830 C.3      15 GLL5        0.0000 
     47 CA         18.5515   -2.6870   30.9360 C.3       5 GLC5        0.0000 
     48 CA         19.4570   -3.1950   29.0210 C.3      10 GLP5        0.0000 
     49 CA         15.7245   -3.6740   35.6377 C.3       5 GLC5        0.0000 
     50 CA         16.1150   -3.0230   33.7630 C.3      15 GLL5        0.0000 
     51 CA         15.3580   -3.5660   37.5500 C.3      10 GLP5        0.0000 
     52 CA         15.8117   -6.2713   34.1163 C.3       5 GLC5        0.0000 
     53 CA         16.0670   -4.5410   33.6880 C.3      15 GLL5        0.0000 
     54 CA         14.8940   -7.7920   34.8610 C.3      10 GLP5        0.0000 
     55 CA         21.3478   -4.9260   34.6100 C.3       5 GLC5        0.0000 
     56 CA         20.2270   -6.2330   34.9990 C.3      15 GLL5        0.0000 
     57 CA         22.0130   -3.1000   34.1190 C.3      10 GLP5        0.0000 
@<TRIPOS>BOND
@<TRIPOS>SUBSTRUCTURE
     1 ALC1       33 GROUP        1 X    ALC  0     ROOT ALC X 1
     2 SEC2        4 GROUP        1 X    SEC  0     **** SEC X 2
     3 LYC4        7 GROUP        1 X    LYC  0     **** LYC X 4
     4 ZIC7        1 GROUP        1 X    ZIC  0     **** ZIC X 5
     5 GLC5       18 GROUP        1 X    GLC  0     **** GLC X 6
     6 ALP1       35 GROUP        1 Y    ALP  0     ROOT ALP Y 8
     7 SEP2        6 GROUP        1 Y    SEP  0     **** SEP Y 9
     8 LYP4        9 GROUP        1 Y    LYP  0     **** LYP Y 11
     9 ZIP7        3 GROUP        1 Y    ZIP  0     **** ZIP Y 12
    10 GLP5       20 GROUP        1 Y    GLP  0     **** GLP Y 13
    11 ALL1       34 GROUP        1 Z    ALL  0     ROOT ALL Z 15
    12 SEL2        5 GROUP        1 Z    SEL  0     **** SEL Z 16
    13 LYL4        8 GROUP        1 Z    LYL  0     **** LYL Z 18
    14 ZIL7        2 GROUP        1 Z    ZIL  0     **** ZIL Z 19
    15 GLL5       19 GROUP        1 Z    GLL  0     **** GLL Z 20
@<TRIPOS>SET

