#    Name: 3akl_ANP_1_ligand
#    Modification time : Tue Mar 25 12:03:44 2014

@<TRIPOS>MOLECULE
3akl_ANP_1_ligand
   43    45     1     0     0
SMALL
NO_CHARGES


@<TRIPOS>ATOM
      1 PG         14.5200    2.8950   34.8130 P.3       1 ANP601      0.0000 
      2 O1G        14.6850    2.1190   36.0600 O.co2     1 ANP601      0.0000 
      3 O2G        14.2390    4.4740   35.1430 O.co2     1 ANP601      0.0000 
      4 O3G        13.1810    2.4250   33.9160 O.co2     1 ANP601      0.0000 
      5 PB         17.2630    2.4750   34.3360 P.3       1 ANP601      0.0000 
      6 O1B        18.2170    2.1820   33.2410 O.co2     1 ANP601      0.0000 
      7 O2B        17.5830    3.5610   35.2850 O.co2     1 ANP601      0.0000 
      8 N3B        15.7830    2.7600   33.7330 N.4       1 ANP601      0.0000 
      9 PA         18.0790   -0.1300   35.0390 P.3       1 ANP601      0.0000 
     10 O1A        19.4450    0.3940   35.1500 O.co2     1 ANP601      0.0000 
     11 O2A        17.7290   -1.2720   35.8520 O.co2     1 ANP601      0.0000 
     12 O3A        17.0590    1.1110   35.2230 O.3       1 ANP601      0.0000 
     13 O5'        17.7560   -0.5020   33.5500 O.3       1 ANP601      0.0000 
     14 C5'        18.2200   -1.7300   33.0710 C.3       1 ANP601      0.0000 
     15 C4'        17.0720   -2.6280   32.6310 C.3       1 ANP601      0.0000 
     16 O4'        17.7070   -3.8490   32.1620 O.3       1 ANP601      0.0000 
     17 C3'        16.1150   -3.0230   33.7630 C.3       1 ANP601      0.0000 
     18 O3'        14.8010   -2.5020   33.5090 O.3       1 ANP601      0.0000 
     19 C2'        16.0670   -4.5410   33.6880 C.3       1 ANP601      0.0000 
     20 O2'        15.0330   -4.9040   32.7830 O.3       1 ANP601      0.0000 
     21 C1'        17.3920   -4.9600   33.0550 C.3       1 ANP601      0.0000 
     22 N9         18.5280   -5.2510   34.0020 N.pl3     1 ANP601      0.0000 
     23 C8         18.9840   -4.4650   34.9800 C.2       1 ANP601      0.0000 
     24 N7         20.0100   -5.0580   35.5880 N.2       1 ANP601      0.0000 
     25 C5         20.2270   -6.2330   34.9990 C.ar      1 ANP601      0.0000 
     26 C6         21.1380   -7.2710   35.2030 C.ar      1 ANP601      0.0000 
     27 N6         22.0500   -7.1960   36.1640 N.pl3     1 ANP601      0.0000 
     28 N1         21.0800   -8.3570   34.4160 N.ar      1 ANP601      0.0000 
     29 C2         20.1690   -8.4400   33.4590 C.ar      1 ANP601      0.0000 
     30 N3         19.2820   -7.4750   33.2310 N.ar      1 ANP601      0.0000 
     31 C4         19.2850   -6.3560   33.9830 C.ar      1 ANP601      0.0000 
     32 H          18.7968   -2.2869   33.8359 H         1 ANP601      0.0000 
     33 H          18.8954   -1.6117   32.2005 H         1 ANP601      0.0000 
     34 H          16.5354   -2.1687   31.8429 H         1 ANP601      0.0000 
     35 H          16.5232   -2.7333   34.6779 H         1 ANP601      0.0000 
     36 H          15.9788   -4.9482   34.6309 H         1 ANP601      0.0000 
     37 H          17.1885   -5.8385   32.4362 H         1 ANP601      0.0000 
     38 H          18.6187   -3.5868   35.2134 H         1 ANP601      0.0000 
     39 H          22.6651   -7.9798   36.2490 H         1 ANP601      0.0000 
     40 H          22.0397   -6.3624   36.7163 H         1 ANP601      0.0000 
     41 H          20.1429   -9.3121   32.8462 H         1 ANP601      0.0000 
     42 H          14.2912   -3.2668   33.1152 H         1 ANP601      0.0000 
     43 H          15.4834   -4.9823   31.8936 H         1 ANP601      0.0000 
@<TRIPOS>BOND
     1    2    1 ar   
     2    3    1 ar   
     3    4    1 ar   
     4    8    1 1    
     5    6    5 ar   
     6    7    5 ar   
     7    8    5 1    
     8   12    5 1    
     9   10    9 ar   
    10   11    9 ar   
    11   12    9 1    
    12   13    9 1    
    13   14   13 1    
    14   15   14 1    
    15   32   14 1    
    16   33   14 1    
    17   16   15 1    
    18   17   15 1    
    19   34   15 1    
    20   21   16 1    
    21   18   17 1    
    22   19   17 1    
    23   35   17 1    
    24   42   18 1    
    25   20   19 1    
    26   21   19 1    
    27   36   19 1    
    28   43   20 1    
    29   22   21 1    
    30   37   21 1    
    31   23   22 1    
    32   31   22 1    
    33   24   23 2    
    34   38   23 1    
    35   25   24 1    
    36   26   25 ar   
    37   31   25 ar   
    38   27   26 1    
    39   28   26 ar   
    40   39   27 1    
    41   40   27 1    
    42   29   28 ar   
    43   30   29 ar   
    44   41   29 1    
    45   31   30 ar   
@<TRIPOS>SUBSTRUCTURE
     1 ANP601      1 GROUP   
@<TRIPOS>SET

