#    Name: 1ady_HAM_4_INTS_M
#    Modification time : Mon Mar 24 18:16:59 2014

@<TRIPOS>MOLECULE
1ady_HAM_4_INTS_M
   67     0    15     0     0
SMALL
NO_CHARGES


@<TRIPOS>ATOM
      1 NZ         33.2755   75.0050   21.6375 N.4       4 LYC4        0.0000 
      2 NZ         31.8910   75.3840   22.4370 N.4      14 LYL4        0.0000 
      3 NZ         35.4920   74.1030   21.7210 N.4       9 LYP4        0.0000 
      4 N          33.2755   75.0050   21.6375 N.am      2 SEC2        0.0000 
      5 N          31.8910   75.3840   22.4370 N.am     12 SEL2        0.0000 
      6 N          34.6600   74.6260   20.8380 N.am      7 SEP2        0.0000 
      7 NZ         28.3000   76.8705   21.1510 N.4       4 LYC4        0.0000 
      8 NZ         30.1430   76.6120   21.1060 N.4      14 LYL4        0.0000 
      9 NZ         26.4570   77.1290   21.1960 N.4       9 LYP4        0.0000 
     10 CA         32.2720   80.5140   22.8810 C.3       5 GLC5        0.0000 
     11 CA         32.0960   79.1010   21.3740 C.3      15 GLL5        0.0000 
     12 CA         32.4480   81.9270   24.3880 C.3      10 GLP5        0.0000 
     13 CA         32.9565   81.8935   20.2880 C.3       5 GLC5        0.0000 
     14 CA         32.9540   79.7080   20.2740 C.3      15 GLL5        0.0000 
     15 CA         32.9590   84.0790   20.3020 C.3      10 GLP5        0.0000 
     16 CA         31.2070   81.0730   18.7065 C.3       5 GLC5        0.0000 
     17 CA         32.4580   79.2620   18.8940 C.3      15 GLL5        0.0000 
     18 CA         29.9560   82.8840   18.5190 C.3      10 GLP5        0.0000 
     19 N          34.2880   82.0350   18.0915 N.am      2 SEC2        0.0000 
     20 N          33.8830   80.8240   17.3460 N.am     12 SEL2        0.0000 
     21 N          34.6930   83.2460   18.8370 N.am      7 SEP2        0.0000 
     22 CA         36.4915   78.4820   20.0530 C.3       5 GLC5        0.0000 
     23 CA         34.7710   79.2850   18.9570 C.3      15 GLL5        0.0000 
     24 CA         38.2120   77.6790   21.1490 C.3      10 GLP5        0.0000 
     25 N          35.1815   75.2165   19.6965 N.am      2 SEC2        0.0000 
     26 N          35.7030   75.8070   18.5550 N.am     12 SEL2        0.0000 
     27 CA         38.4465   75.3675   15.3360 C.3       5 GLC5        0.0000 
     28 CA         37.6960   75.8450   17.2950 C.3      15 GLL5        0.0000 
     29 CA         39.1970   74.8900   13.3770 C.3      10 GLP5        0.0000 
     30 N          39.8055   76.0895   15.6815 N.am      2 SEC2        0.0000 
     31 N          38.5370   76.6420   16.6090 N.am     12 SEL2        0.0000 
     32 N          41.0740   75.5370   14.7540 N.am      7 SEP2        0.0000 
     33 CA         38.7600   76.4260   14.9480 C.3       5 GLC5        0.0000 
     34 CA         38.3230   77.9620   16.5190 C.3      15 GLL5        0.0000 
     35 CA         39.5805   78.4995   17.6445 C.3       5 GLC5        0.0000 
     36 CA         40.8380   79.0370   18.7700 C.3      10 GLP5        0.0000 
     37 CA         32.1315   76.9510   26.6550 C.3       5 GLC5        0.0000 
     38 CA         30.8590   78.0890   25.9670 C.3      15 GLL5        0.0000 
     39 CA         33.4040   75.8130   27.3430 C.3      10 GLP5        0.0000 
     40 OD1        32.2100   77.0450   28.2630 O.co2     3 ASC3        0.0000 
     41 OD1        31.8920   78.3250   26.9790 O.co2    13 ASL3        0.0000 
     42 OD1        32.5280   75.7650   29.5470 O.co2     8 ASP3        0.0000 
     43 O          31.2245   78.4135   28.1310 O.2       1 ALC1        0.0000 
     44 O          31.8920   78.3250   26.9790 O.2      11 ALL1        0.0000 
     45 O          30.5570   78.5020   29.2830 O.2       6 ALP1        0.0000 
     46 CA         27.9025   82.1445   28.2110 C.3       5 GLC5        0.0000 
     47 CA         29.3000   80.7310   27.7230 C.3      15 GLL5        0.0000 
     48 CA         26.5050   83.5580   28.6990 C.3      10 GLP5        0.0000 
     49 N          28.7870   77.4805   27.6355 N.am      2 SEC2        0.0000 
     50 N          28.1090   78.9700   27.1940 N.am     12 SEL2        0.0000 
     51 N          29.4650   75.9910   28.0770 N.am      7 SEP2        0.0000 
     52 N          27.6965   78.0800   26.1345 N.am      2 SEC2        0.0000 
     53 N          27.2840   77.1900   25.0750 N.am      7 SEP2        0.0000 
     54 O          28.5690   81.4340   29.5735 O.2       1 ALC1        0.0000 
     55 O          28.3690   80.4800   28.6920 O.2      11 ALL1        0.0000 
     56 O          28.7690   82.3880   30.4550 O.2       6 ALP1        0.0000 
     57 CA         35.1340   81.2227   18.4323 C.3       5 GLC5        0.0000 
     58 CA         36.0570   83.0230   18.3930 C.3      10 GLP5        0.0000 
     59 CA         31.4490   80.3255   25.0990 C.3       5 GLC5        0.0000 
     60 CA         30.0410   79.3590   25.6530 C.3      15 GLL5        0.0000 
     61 CA         27.8038   80.0475   25.1475 C.3       5 GLC5        0.0000 
     62 CA         26.0040   80.5400   24.0720 C.3      10 GLP5        0.0000 
     63 CA         29.9575   79.0605   28.8925 C.3       5 GLC5        0.0000 
     64 CA         29.1660   79.7510   26.7930 C.3      15 GLL5        0.0000 
     65 CA         30.6820   77.8800   30.5270 C.3      10 GLP5        0.0000 
     66 CA         28.8834   81.7285   26.1810 C.3       5 GLC5        0.0000 
     67 CA         28.3150   83.3140   25.3890 C.3      10 GLP5        0.0000 
@<TRIPOS>BOND
@<TRIPOS>SUBSTRUCTURE
     1 ALC1       43 GROUP        1 X    ALC  0     ROOT ALC X 1
     2 SEC2        4 GROUP        1 X    SEC  0     **** SEC X 2
     3 ASC3       40 GROUP        1 X    ASC  0     **** ASC X 3
     4 LYC4        1 GROUP        1 X    LYC  0     **** LYC X 4
     5 GLC5       10 GROUP        1 X    GLC  0     **** GLC X 6
     6 ALP1       45 GROUP        1 Y    ALP  0     ROOT ALP Y 8
     7 SEP2        6 GROUP        1 Y    SEP  0     **** SEP Y 9
     8 ASP3       42 GROUP        1 Y    ASP  0     **** ASP Y 10
     9 LYP4        3 GROUP        1 Y    LYP  0     **** LYP Y 11
    10 GLP5       12 GROUP        1 Y    GLP  0     **** GLP Y 13
    11 ALL1       44 GROUP        1 Z    ALL  0     ROOT ALL Z 15
    12 SEL2        5 GROUP        1 Z    SEL  0     **** SEL Z 16
    13 ASL3       41 GROUP        1 Z    ASL  0     **** ASL Z 17
    14 LYL4        2 GROUP        1 Z    LYL  0     **** LYL Z 18
    15 GLL5       11 GROUP        1 Z    GLL  0     **** GLL Z 20
@<TRIPOS>SET

