#    Name: 1ady_HAM_4_ligand
#    Modification time : Mon Mar 24 18:16:59 2014

@<TRIPOS>MOLECULE
1ady_HAM_4_ligand
   54    57     1     0     0
SMALL
NO_CHARGES


@<TRIPOS>ATOM
      1 P          31.2770   76.6870   22.0550 P.3       1 HAM423      0.0000 
      2 O1P        31.8910   75.3840   22.4370 O.co2     1 HAM423      0.0000 
      3 O2P        30.1430   76.6120   21.1060 O.co2     1 HAM423      0.0000 
      4 O3P        30.9010   77.4620   23.4340 O.3       1 HAM423      0.0000 
      5 O5'        32.3120   77.6850   21.3440 O.3       1 HAM423      0.0000 
      6 C5'        32.0960   79.1010   21.3740 C.3       1 HAM423      0.0000 
      7 C4'        32.9540   79.7080   20.2740 C.3       1 HAM423      0.0000 
      8 O4'        34.3120   79.2460   20.3230 O.3       1 HAM423      0.0000 
      9 C3'        32.4580   79.2620   18.8940 C.3       1 HAM423      0.0000 
     10 O3'        31.2790   79.8480   18.3480 O.3       1 HAM423      0.0000 
     11 C2'        33.6510   79.5600   17.9860 C.3       1 HAM423      0.0000 
     12 O2'        33.8830   80.8240   17.3460 O.3       1 HAM423      0.0000 
     13 C1'        34.7710   79.2850   18.9570 C.3       1 HAM423      0.0000 
     14 N9         35.3290   77.9840   18.6010 N.pl3     1 HAM423      0.0000 
     15 C8         34.8930   76.7770   19.0110 C.2       1 HAM423      0.0000 
     16 N7         35.7030   75.8070   18.5550 N.2       1 HAM423      0.0000 
     17 C5         36.6310   76.4900   17.8950 C.ar      1 HAM423      0.0000 
     18 C6         37.6960   75.8450   17.2950 C.ar      1 HAM423      0.0000 
     19 N6         37.8170   74.5490   17.4340 N.pl3     1 HAM423      0.0000 
     20 N1         38.5370   76.6420   16.6090 N.ar      1 HAM423      0.0000 
     21 C2         38.3230   77.9620   16.5190 C.ar      1 HAM423      0.0000 
     22 N3         37.3020   78.5770   17.1350 N.ar      1 HAM423      0.0000 
     23 C4         36.4380   77.8280   17.8590 C.ar      1 HAM423      0.0000 
     24 C          31.6000   77.6060   24.6890 C.2       1 HAM423      0.0000 
     25 O          32.8140   77.3960   24.7450 O.2       1 HAM423      0.0000 
     26 CA         30.8590   78.0890   25.9670 C.3       1 HAM423      0.0000 
     27 N          31.8920   78.3250   26.9790 N.4       1 HAM423      0.0000 
     28 CB         30.0410   79.3590   25.6530 C.3       1 HAM423      0.0000 
     29 CG         29.1660   79.7510   26.7930 C.2       1 HAM423      0.0000 
     30 CD2        29.3000   80.7310   27.7230 C.2       1 HAM423      0.0000 
     31 ND1        28.1090   78.9700   27.1940 N.2       1 HAM423      0.0000 
     32 CE1        27.6490   79.4330   28.3340 C.2       1 HAM423      0.0000 
     33 NE2        28.3690   80.4800   28.6920 N.pl3     1 HAM423      0.0000 
     34 H          32.4000   79.5360   22.3209 H         1 HAM423      0.0000 
     35 H          31.0596   79.3558   21.1760 H         1 HAM423      0.0000 
     36 H          32.9043   80.7718   20.3092 H         1 HAM423      0.0000 
     37 H          32.3995   78.1608   18.9197 H         1 HAM423      0.0000 
     38 H          33.7168   78.7120   17.2713 H         1 HAM423      0.0000 
     39 H          35.5288   80.0411   18.8231 H         1 HAM423      0.0000 
     40 H          34.0974   76.6296   19.5636 H         1 HAM423      0.0000 
     41 H          38.6101   74.1311   16.9909 H         1 HAM423      0.0000 
     42 H          37.1053   74.0957   17.9706 H         1 HAM423      0.0000 
     43 H          38.9912   78.5480   15.9340 H         1 HAM423      0.0000 
     44 H          30.1979   77.3051   26.2702 H         1 HAM423      0.0000 
     45 H          29.4371   79.1645   24.7594 H         1 HAM423      0.0000 
     46 H          30.7420   80.1674   25.4162 H         1 HAM423      0.0000 
     47 H          29.9174   81.4517   27.7084 H         1 HAM423      0.0000 
     48 H          26.8936   79.0636   28.8400 H         1 HAM423      0.0000 
     49 H          28.2742   81.0042   29.5046 H         1 HAM423      0.0000 
     50 H          32.4103   77.4941   27.1815 H         1 HAM423      0.0000 
     51 H          32.5509   79.0165   26.6829 H         1 HAM423      0.0000 
     52 H          31.5004   78.6438   27.8421 H         1 HAM423      0.0000 
     53 H          31.6048   80.4663   17.6328 H         1 HAM423      0.0000 
     54 H          34.4309   80.6080   16.5378 H         1 HAM423      0.0000 
@<TRIPOS>BOND
     1    2    1 ar   
     2    3    1 ar   
     3    4    1 1    
     4    5    1 1    
     5   24    4 1    
     6    6    5 1    
     7    7    6 1    
     8   34    6 1    
     9   35    6 1    
    10    8    7 1    
    11    9    7 1    
    12   36    7 1    
    13   13    8 1    
    14   10    9 1    
    15   11    9 1    
    16   37    9 1    
    17   53   10 1    
    18   12   11 1    
    19   13   11 1    
    20   38   11 1    
    21   54   12 1    
    22   14   13 1    
    23   39   13 1    
    24   15   14 1    
    25   23   14 1    
    26   16   15 2    
    27   40   15 1    
    28   17   16 1    
    29   18   17 ar   
    30   23   17 ar   
    31   19   18 1    
    32   20   18 ar   
    33   41   19 1    
    34   42   19 1    
    35   21   20 ar   
    36   22   21 ar   
    37   43   21 1    
    38   23   22 ar   
    39   25   24 2    
    40   26   24 1    
    41   27   26 1    
    42   28   26 1    
    43   44   26 1    
    44   50   27 1    
    45   51   27 1    
    46   52   27 1    
    47   29   28 1    
    48   45   28 1    
    49   46   28 1    
    50   30   29 2    
    51   31   29 1    
    52   33   30 1    
    53   47   30 1    
    54   32   31 2    
    55   33   32 1    
    56   48   32 1    
    57   49   33 1    
@<TRIPOS>SUBSTRUCTURE
     1 HAM423      1 GROUP   
@<TRIPOS>SET

