#    Name: 4k9w_7AW_4_INTS_M
#    Modification time : Tue Mar 25 07:37:48 2014

@<TRIPOS>MOLECULE
4k9w_7AW_4_INTS_M
   73     0     6     0     0
SMALL
NO_CHARGES


@<TRIPOS>ATOM
      1 N          34.6695  -89.9670  -17.4135 N.am      1 SEC2        0.0000 
      2 N          33.3730  -89.9430  -16.9190 N.am      5 SEL2        0.0000 
      3 N          35.9660  -89.9910  -17.9080 N.am      3 SEP2        0.0000 
      4 CA         33.7305  -86.9975  -16.8485 C.3       2 GLC5        0.0000 
      5 CA         32.7940  -87.7540  -15.0780 C.3       6 GLL5        0.0000 
      6 CA         34.6670  -86.2410  -18.6190 C.3       4 GLP5        0.0000 
      7 CA         30.8215  -87.5955  -15.5140 C.3       2 GLC5        0.0000 
      8 CA         28.8490  -87.4370  -15.9500 C.3       4 GLP5        0.0000 
      9 CA         32.1100  -85.4800  -13.7505 C.3       2 GLC5        0.0000 
     10 CA         32.0940  -87.1150  -12.5180 C.3       6 GLL5        0.0000 
     11 CA         32.1260  -83.8450  -14.9830 C.3       4 GLP5        0.0000 
     12 CA         30.7845  -85.6855  -11.5205 C.3       2 GLC5        0.0000 
     13 CA         29.4750  -84.2560  -10.5230 C.3       4 GLP5        0.0000 
     14 CA         31.9035  -87.6865  -10.6515 C.3       2 GLC5        0.0000 
     15 CA         31.7130  -88.2580   -8.7850 C.3       4 GLP5        0.0000 
     16 CA         29.2685  -88.7985  -17.1075 C.3       2 GLC5        0.0000 
     17 CA         29.6880  -90.1600  -18.2650 C.3       6 GLL5        0.0000 
     18 CA         28.0105  -88.6325  -20.2830 C.3       2 GLC5        0.0000 
     19 CA         29.6080  -89.3610  -19.5540 C.3       6 GLL5        0.0000 
     20 CA         26.4130  -87.9040  -21.0120 C.3       4 GLP5        0.0000 
     21 CA         29.5995  -88.3655  -21.3220 C.3       2 GLC5        0.0000 
     22 CA         29.5910  -87.3700  -23.0900 C.3       4 GLP5        0.0000 
     23 CA         29.0505  -87.7460  -18.8200 C.3       2 GLC5        0.0000 
     24 CA         28.4930  -86.1310  -18.0860 C.3       4 GLP5        0.0000 
     25 CA         29.9315  -93.5805  -16.9795 C.3       2 GLC5        0.0000 
     26 CA         31.7920  -93.0860  -17.0410 C.3       6 GLL5        0.0000 
     27 CA         28.0710  -94.0750  -16.9180 C.3       4 GLP5        0.0000 
     28 CA         30.9915  -93.5010  -19.0970 C.3       2 GLC5        0.0000 
     29 CA         30.1910  -93.9160  -21.1530 C.3       4 GLP5        0.0000 
     30 CA         34.4220  -93.3705  -18.1515 C.3       2 GLC5        0.0000 
     31 CA         33.1930  -93.1450  -16.4210 C.3       6 GLL5        0.0000 
     32 CA         35.6510  -93.5960  -19.8820 C.3       4 GLP5        0.0000 
     33 CA         36.1875  -90.7380  -15.2160 C.3       2 GLC5        0.0000 
     34 CA         35.3670  -91.4800  -13.4580 C.3       6 GLL5        0.0000 
     35 CA         37.0080  -89.9960  -16.9740 C.3       4 GLP5        0.0000 
     36 CA         32.4855  -99.0340  -15.4895 C.3       2 GLC5        0.0000 
     37 CA         31.4960  -98.1260  -14.3410 C.3       6 GLL5        0.0000 
     38 CA         33.4750  -99.9420  -16.6380 C.3       4 GLP5        0.0000 
     39 CA         28.1705  -98.4785  -13.7970 C.3       2 GLC5        0.0000 
     40 CA         29.4820  -97.5690  -12.9150 C.3       6 GLL5        0.0000 
     41 CA         26.8590  -99.3880  -14.6790 C.3       4 GLP5        0.0000 
     42 CA         27.7610  -97.2490  -11.5455 C.3       2 GLC5        0.0000 
     43 CA         26.0400  -96.9290  -10.1760 C.3       4 GLP5        0.0000 
     44 CA         30.6835  -97.5740   -7.4250 C.3       2 GLC5        0.0000 
     45 CA         32.4040  -97.3260   -8.8090 C.3       6 GLL5        0.0000 
     46 CA         28.9630  -97.8220   -6.0410 C.3       4 GLP5        0.0000 
     47 CA         33.0855  -98.3820   -7.0525 C.3       2 GLC5        0.0000 
     48 CA         33.7670  -99.4380   -5.2960 C.3       4 GLP5        0.0000 
     49 CA         30.2725 -104.1960   -8.3310 C.3       2 GLC5        0.0000 
     50 CA         31.0530 -103.1980   -9.6340 C.3       6 GLL5        0.0000 
     51 CA         29.4920 -105.1940   -7.0280 C.3       4 GLP5        0.0000 
     52 CA         29.2800 -102.7580   -9.4650 C.3       2 GLC5        0.0000 
     53 CA         27.5070 -102.3180   -9.2960 C.3       4 GLP5        0.0000 
     54 CA         34.1055 -102.5645  -12.4570 C.3       2 GLC5        0.0000 
     55 CA         32.2130 -102.4840  -11.7480 C.3       6 GLL5        0.0000 
     56 CA         35.9980 -102.6450  -13.1660 C.3       4 GLP5        0.0000 
     57 CA         32.9074  -85.3830  -14.4504 C.3       2 GLC5        0.0000 
     58 CA         29.1998  -92.4333  -17.4144 C.3       2 GLC5        0.0000 
     59 CA         29.4564  -91.7550  -19.7715 C.3       2 GLC5        0.0000 
     60 CA         30.8990  -91.0860  -18.2390 C.3       6 GLL5        0.0000 
     61 CA         28.9620  -93.5180  -20.6400 C.3       4 GLP5        0.0000 
     62 CA         31.6904  -89.3620  -19.4080 C.3       2 GLC5        0.0000 
     63 CA         33.4300  -88.7320  -19.9130 C.3       4 GLP5        0.0000 
     64 CA         32.9262  -94.7198  -17.8320 C.3       2 GLC5        0.0000 
     65 CA         33.3600  -96.3240  -18.9330 C.3       4 GLP5        0.0000 
     66 CA         37.1193  -92.9990  -13.2773 C.3       2 GLC5        0.0000 
     67 CA         34.8420  -92.7560  -13.2490 C.3       6 GLL5        0.0000 
     68 CA         39.1340  -93.8800  -13.2010 C.3       4 GLP5        0.0000 
     69 CA         34.7172  -91.4200   -8.9880 C.3       2 GLC5        0.0000 
     70 CA         34.7350  -92.3340  -10.8770 C.3       6 GLL5        0.0000 
     71 CA         34.4390  -91.1430   -6.9910 C.3       4 GLP5        0.0000 
     72 CA         30.8121 -103.7159  -11.7566 C.3       2 GLC5        0.0000 
     73 CA         29.7280 -104.8210  -12.6710 C.3       4 GLP5        0.0000 
@<TRIPOS>BOND
@<TRIPOS>SUBSTRUCTURE
     1 SEC2        1 GROUP        1 X    SEC  0     ROOT SEC X 2
     2 GLC5        4 GROUP        1 X    GLC  0     **** GLC X 6
     3 SEP2        3 GROUP        1 Y    SEP  0     ROOT SEP Y 9
     4 GLP5        6 GROUP        1 Y    GLP  0     **** GLP Y 13
     5 SEL2        2 GROUP        1 Z    SEL  0     ROOT SEL Z 16
     6 GLL5        5 GROUP        1 Z    GLL  0     **** GLL Z 20
@<TRIPOS>SET

