#    Name: 4k9w_7AW_4_ligand
#    Modification time : Tue Mar 25 07:37:48 2014

@<TRIPOS>MOLECULE
4k9w_7AW_4_ligand
   93    95     1     0     0
SMALL
NO_CHARGES


@<TRIPOS>ATOM
      1 O38        33.3730  -89.9430  -16.9190 O.2       1 7AW602      0.0000 
      2 C37        32.6270  -90.0450  -15.9600 C.2       1 7AW602      0.0000 
      3 O39        32.8710  -89.1570  -14.8540 O.3       1 7AW602      0.0000 
      4 C40        32.7940  -87.7540  -15.0780 C.3       1 7AW602      0.0000 
      5 C41        33.2270  -87.0820  -13.8070 C.2       1 7AW602      0.0000 
      6 S45        32.0940  -87.1150  -12.5180 S.3       1 7AW602      0.0000 
      7 C44        33.1360  -86.2520  -11.4420 C.2       1 7AW602      0.0000 
      8 N43        34.2990  -85.9690  -12.1000 N.2       1 7AW602      0.0000 
      9 C42        34.3670  -86.4240  -13.3930 C.2       1 7AW602      0.0000 
     10 N36        31.6150  -90.9130  -15.8290 N.am      1 7AW602      0.0000 
     11 C04        31.0390  -91.7600  -16.8740 C.3       1 7AW602      0.0000 
     12 C03        30.8990  -91.0860  -18.2390 C.3       1 7AW602      0.0000 
     13 C02        29.6880  -90.1600  -18.2650 C.3       1 7AW602      0.0000 
     14 C01        29.6080  -89.3610  -19.5540 C.3       1 7AW602      0.0000 
     15 C05        31.7920  -93.0860  -17.0410 C.3       1 7AW602      0.0000 
     16 C06        33.1930  -93.1450  -16.4210 C.3       1 7AW602      0.0000 
     17 C07        33.1850  -93.4790  -14.9300 C.3       1 7AW602      0.0000 
     18 C08        34.6100  -93.6770  -14.4220 C.3       1 7AW602      0.0000 
     19 C09        34.8420  -92.7560  -13.2490 C.ar      1 7AW602      0.0000 
     20 C14        35.3670  -91.4800  -13.4580 C.ar      1 7AW602      0.0000 
     21 C13        35.5710  -90.6310  -12.3790 C.ar      1 7AW602      0.0000 
     22 C12        35.2560  -91.0600  -11.0930 C.ar      1 7AW602      0.0000 
     23 C11        34.7350  -92.3340  -10.8770 C.ar      1 7AW602      0.0000 
     24 C10        34.5280  -93.1860  -11.9600 C.ar      1 7AW602      0.0000 
     25 N15        32.3940  -94.6680  -14.6740 N.am      1 7AW602      0.0000 
     26 C16        31.5420  -94.7440  -13.6500 C.2       1 7AW602      0.0000 
     27 O17        30.7780  -93.8340  -13.3420 O.2       1 7AW602      0.0000 
     28 C18        31.5580  -96.0510  -12.9000 C.3       1 7AW602      0.0000 
     29 C33        30.6660  -97.0120  -13.7040 C.3       1 7AW602      0.0000 
     30 C35        31.4960  -98.1260  -14.3410 C.3       1 7AW602      0.0000 
     31 C34        29.4820  -97.5690  -12.9150 C.3       1 7AW602      0.0000 
     32 N19        31.1750  -95.9470  -11.4890 N.am      1 7AW602      0.0000 
     33 C20        31.9590  -95.5430  -10.4680 C.2       1 7AW602      0.0000 
     34 O21        31.8880  -94.3920  -10.0590 O.2       1 7AW602      0.0000 
     35 N22        32.8020  -96.4030   -9.8750 N.am      1 7AW602      0.0000 
     36 C23        34.2120  -96.4730  -10.2310 C.3       1 7AW602      0.0000 
     37 C24        32.4040  -97.3260   -8.8090 C.3       1 7AW602      0.0000 
     38 C25        31.8150  -98.6110   -9.3660 C.2       1 7AW602      0.0000 
     39 N32        32.5040  -99.8070   -9.4330 N.2       1 7AW602      0.0000 
     40 C28        31.7970 -100.8480   -9.9630 C.2       1 7AW602      0.0000 
     41 C29        32.1060 -102.2770  -10.2390 C.3       1 7AW602      0.0000 
     42 C31        31.0530 -103.1980   -9.6340 C.3       1 7AW602      0.0000 
     43 C30        32.2130 -102.4840  -11.7480 C.3       1 7AW602      0.0000 
     44 S27        30.2140 -100.3070  -10.3960 S.3       1 7AW602      0.0000 
     45 C26        30.5000  -98.6830   -9.8580 C.2       1 7AW602      0.0000 
     46 H          31.7789  -87.4370  -15.3094 H         1 7AW602      0.0000 
     47 H          33.4561  -87.4362  -15.8812 H         1 7AW602      0.0000 
     48 H          32.7869  -86.1084  -10.6199 H         1 7AW602      0.0000 
     49 H          35.1560  -86.2946  -13.9755 H         1 7AW602      0.0000 
     50 H          31.1433  -91.0342  -14.8689 H         1 7AW602      0.0000 
     51 H          29.9970  -92.0504  -16.5675 H         1 7AW602      0.0000 
     52 H          30.7850  -91.8508  -19.0058 H         1 7AW602      0.0000 
     53 H          31.7989  -90.5091  -18.4474 H         1 7AW602      0.0000 
     54 H          29.7460  -89.4712  -17.4151 H         1 7AW602      0.0000 
     55 H          28.7775  -90.7586  -18.1530 H         1 7AW602      0.0000 
     56 H          31.8736  -93.3131  -18.1246 H         1 7AW602      0.0000 
     57 H          31.1764  -93.9004  -16.6050 H         1 7AW602      0.0000 
     58 H          33.6882  -92.1744  -16.5689 H         1 7AW602      0.0000 
     59 H          33.7864  -93.9010  -16.9551 H         1 7AW602      0.0000 
     60 H          32.7611  -92.6263  -14.4009 H         1 7AW602      0.0000 
     61 H          35.3072  -93.4433  -15.2168 H         1 7AW602      0.0000 
     62 H          34.7379  -94.7066  -14.1123 H         1 7AW602      0.0000 
     63 H          35.6009  -91.1728  -14.4097 H         1 7AW602      0.0000 
     64 H          35.9529  -89.6894  -12.5273 H         1 7AW602      0.0000 
     65 H          35.4096  -90.4287  -10.2910 H         1 7AW602      0.0000 
     66 H          34.5054  -92.6427   -9.9273 H         1 7AW602      0.0000 
     67 H          34.1462  -94.1259  -11.8103 H         1 7AW602      0.0000 
     68 H          32.5311  -95.4603  -15.3385 H         1 7AW602      0.0000 
     69 H          32.5850  -96.4560  -12.9860 H         1 7AW602      0.0000 
     70 H          30.2417  -96.4163  -14.5522 H         1 7AW602      0.0000 
     71 H          30.1597  -96.2307  -11.2932 H         1 7AW602      0.0000 
     72 H          31.6546  -96.8572   -8.1527 H         1 7AW602      0.0000 
     73 H          33.2697  -97.5856   -8.1803 H         1 7AW602      0.0000 
     74 H          33.0708 -102.5227   -9.8008 H         1 7AW602      0.0000 
     75 H          29.8157  -98.1216   -9.9536 H         1 7AW602      0.0000 
     76 H          30.4148  -88.7847  -19.6844 H         1 7AW602      0.0000 
     77 H          29.5395  -89.9550  -20.3555 H         1 7AW602      0.0000 
     78 H          28.8111  -88.7571  -19.5678 H         1 7AW602      0.0000 
     79 H          32.1879  -97.7631  -14.9651 H         1 7AW602      0.0000 
     80 H          31.9776  -98.6697  -13.6537 H         1 7AW602      0.0000 
     81 H          30.9276  -98.7573  -14.8686 H         1 7AW602      0.0000 
     82 H          29.7804  -98.0815  -12.1098 H         1 7AW602      0.0000 
     83 H          28.8761  -96.8421  -12.5918 H         1 7AW602      0.0000 
     84 H          28.9261  -98.1896  -13.4681 H         1 7AW602      0.0000 
     85 H          34.6785  -95.6027  -10.0733 H         1 7AW602      0.0000 
     86 H          34.6960  -97.1660   -9.6967 H         1 7AW602      0.0000 
     87 H          34.3405  -96.7039  -11.1955 H         1 7AW602      0.0000 
     88 H          31.2540 -104.1609   -9.8143 H         1 7AW602      0.0000 
     89 H          30.9930 -103.0920   -8.6414 H         1 7AW602      0.0000 
     90 H          30.1423 -103.0144  -10.0040 H         1 7AW602      0.0000 
     91 H          32.9349 -101.9206  -12.1499 H         1 7AW602      0.0000 
     92 H          32.4205 -103.4347  -11.9787 H         1 7AW602      0.0000 
     93 H          31.3617 -102.2478  -12.2166 H         1 7AW602      0.0000 
@<TRIPOS>BOND
     1    2    1 2    
     2    3    2 1    
     3   10    2 am   
     4    4    3 1    
     5    5    4 1    
     6   46    4 1    
     7   47    4 1    
     8    6    5 1    
     9    9    5 2    
    10    7    6 1    
    11    8    7 2    
    12   48    7 1    
    13    9    8 1    
    14   49    9 1    
    15   11   10 1    
    16   50   10 1    
    17   12   11 1    
    18   15   11 1    
    19   51   11 1    
    20   13   12 1    
    21   52   12 1    
    22   53   12 1    
    23   14   13 1    
    24   54   13 1    
    25   55   13 1    
    26   76   14 1    
    27   77   14 1    
    28   78   14 1    
    29   16   15 1    
    30   56   15 1    
    31   57   15 1    
    32   17   16 1    
    33   58   16 1    
    34   59   16 1    
    35   18   17 1    
    36   25   17 1    
    37   60   17 1    
    38   19   18 1    
    39   61   18 1    
    40   62   18 1    
    41   20   19 ar   
    42   24   19 ar   
    43   21   20 ar   
    44   63   20 1    
    45   22   21 ar   
    46   64   21 1    
    47   23   22 ar   
    48   65   22 1    
    49   24   23 ar   
    50   66   23 1    
    51   67   24 1    
    52   26   25 am   
    53   68   25 1    
    54   27   26 2    
    55   28   26 1    
    56   29   28 1    
    57   32   28 1    
    58   69   28 1    
    59   30   29 1    
    60   31   29 1    
    61   70   29 1    
    62   79   30 1    
    63   80   30 1    
    64   81   30 1    
    65   82   31 1    
    66   83   31 1    
    67   84   31 1    
    68   33   32 am   
    69   71   32 1    
    70   34   33 2    
    71   35   33 am   
    72   36   35 1    
    73   37   35 1    
    74   85   36 1    
    75   86   36 1    
    76   87   36 1    
    77   38   37 1    
    78   72   37 1    
    79   73   37 1    
    80   39   38 1    
    81   45   38 2    
    82   40   39 2    
    83   41   40 1    
    84   44   40 1    
    85   42   41 1    
    86   43   41 1    
    87   74   41 1    
    88   88   42 1    
    89   89   42 1    
    90   90   42 1    
    91   91   43 1    
    92   92   43 1    
    93   93   43 1    
    94   45   44 1    
    95   75   45 1    
@<TRIPOS>SUBSTRUCTURE
     1 7AW602      1 GROUP   
@<TRIPOS>SET

