#    Name: 2w3v_TOP_1_INTS_M
#    Modification time : Tue Mar 25 03:38:51 2014

@<TRIPOS>MOLECULE
2w3v_TOP_1_INTS_M
   62     0     9     0     0
SMALL
NO_CHARGES


@<TRIPOS>ATOM
      1 CA         52.1245   24.6070   31.9120 C.3       3 GLC5        0.0000 
      2 CA         52.0400   22.6800   30.9990 C.3       9 GLL5        0.0000 
      3 CA         52.2090   26.5340   32.8250 C.3       6 GLP5        0.0000 
      4 CA         50.6060   23.7570   30.0705 C.3       3 GLC5        0.0000 
      5 CA         49.1720   24.8340   29.1420 C.3       6 GLP5        0.0000 
      6 CA         51.3660   21.3825   29.4790 C.3       3 GLC5        0.0000 
      7 CA         50.6920   20.0850   27.9590 C.3       6 GLP5        0.0000 
      8 N          52.8165   23.7360   28.9370 N.am      2 SEC2        0.0000 
      9 N          52.7790   22.6950   29.8620 N.am      8 SEL2        0.0000 
     10 N          52.8540   24.7770   28.0120 N.am      5 SEP2        0.0000 
     11 CA         54.5285   19.7890   29.2415 C.3       3 GLC5        0.0000 
     12 CA         53.7700   21.7440   29.6900 C.3       9 GLL5        0.0000 
     13 CA         55.2870   17.8340   28.7930 C.3       6 GLP5        0.0000 
     14 CA         55.5865   21.3465   30.4385 C.3       3 GLC5        0.0000 
     15 CA         57.4030   20.9490   31.1870 C.3       6 GLP5        0.0000 
     16 CA         54.9765   23.4315   29.4545 C.3       3 GLC5        0.0000 
     17 CA         56.1830   25.1190   29.2190 C.3       6 GLP5        0.0000 
     18 CA         52.2310   20.9145   28.8245 C.3       3 GLC5        0.0000 
     19 O          54.3125   22.7060   27.5755 O.2       1 ALC1        0.0000 
     20 O          54.4860   21.7320   28.5630 O.2       7 ALL1        0.0000 
     21 O          54.1390   23.6800   26.5880 O.2       4 ALP1        0.0000 
     22 O          53.6700   23.2545   28.2875 O.2       1 ALC1        0.0000 
     23 O          52.8540   24.7770   28.0120 O.2       4 ALP1        0.0000 
     24 CA         55.3820   20.8890   31.4890 C.3       3 GLC5        0.0000 
     25 CA         53.3610   20.8290   31.7910 C.3       9 GLL5        0.0000 
     26 O          54.9595   19.3210   32.5510 O.2       1 ALC1        0.0000 
     27 O          53.6560   19.9380   32.7550 O.2       7 ALL1        0.0000 
     28 O          56.2630   18.7040   32.3470 O.2       4 ALP1        0.0000 
     29 O          53.6605   19.7080   34.2090 O.2       1 ALC1        0.0000 
     30 O          53.6650   19.4780   35.6630 O.2       4 ALP1        0.0000 
     31 CA         51.2270   19.9035   32.3035 C.3       3 GLC5        0.0000 
     32 CA         51.5340   21.6300   33.3160 C.3       9 GLL5        0.0000 
     33 CA         50.9200   18.1770   31.2910 C.3       6 GLP5        0.0000 
     34 CA         52.9575   22.1930   34.1890 C.3       3 GLC5        0.0000 
     35 CA         54.3810   22.7560   35.0620 C.3       6 GLP5        0.0000 
     36 CA         47.9100   23.5345   30.1720 C.3       3 GLC5        0.0000 
     37 CA         46.6480   22.2350   31.2020 C.3       9 GLL5        0.0000 
     38 CA         47.8205   20.8515   30.4765 C.3       3 GLC5        0.0000 
     39 CA         48.9930   19.4680   29.7510 C.3       6 GLP5        0.0000 
     40 CA         45.7335   20.7500   32.4930 C.3       3 GLC5        0.0000 
     41 CA         44.8190   19.2650   33.7840 C.3       6 GLP5        0.0000 
     42 CA         47.2625   26.4450   30.7300 C.3       3 GLC5        0.0000 
     43 CA         47.2240   26.5480   32.9180 C.3       9 GLL5        0.0000 
     44 CA         47.3010   26.3420   28.5420 C.3       6 GLP5        0.0000 
     45 CA         51.5180   26.5185   35.1690 C.3       3 GLC5        0.0000 
     46 CA         50.5120   25.4200   36.4510 C.3       9 GLL5        0.0000 
     47 CA         52.5240   27.6170   33.8870 C.3       6 GLP5        0.0000 
     48 CA         50.0190   25.6650   38.3350 C.3       3 GLC5        0.0000 
     49 CA         49.5260   25.9100   40.2190 C.3       6 GLP5        0.0000 
     50 CA         48.8240   23.9330   36.4455 C.3       3 GLC5        0.0000 
     51 CA         47.1360   22.4460   36.4400 C.3       6 GLP5        0.0000 
     52 CA         52.2100   24.4955   36.9165 C.3       3 GLC5        0.0000 
     53 CA         53.9080   23.5710   37.3820 C.3       6 GLP5        0.0000 
     54 CA         48.4585   22.4810   34.7017 C.3       3 GLC5        0.0000 
     55 CA         50.3460   22.5620   33.3730 C.3       9 GLL5        0.0000 
     56 CA         48.9365   23.8905   30.8852 C.3       3 GLC5        0.0000 
     57 CA         48.1860   23.4240   32.7030 C.3       9 GLL5        0.0000 
     58 CA         47.6863   23.1960   34.8035 C.3       3 GLC5        0.0000 
     59 CA         51.0556   25.1711   33.4831 C.3       3 GLC5        0.0000 
     60 CA         49.4210   24.5440   34.4400 C.3       9 GLL5        0.0000 
     61 CA         48.5285   23.2548   35.4080 C.3       3 GLC5        0.0000 
     62 CA         50.4210   23.5830   34.3120 C.3       9 GLL5        0.0000 
@<TRIPOS>BOND
@<TRIPOS>SUBSTRUCTURE
     1 ALC1       19 GROUP        1 X    ALC  0     ROOT ALC X 1
     2 SEC2        8 GROUP        1 X    SEC  0     **** SEC X 2
     3 GLC5        1 GROUP        1 X    GLC  0     **** GLC X 6
     4 ALP1       21 GROUP        1 Y    ALP  0     ROOT ALP Y 8
     5 SEP2       10 GROUP        1 Y    SEP  0     **** SEP Y 9
     6 GLP5        3 GROUP        1 Y    GLP  0     **** GLP Y 13
     7 ALL1       20 GROUP        1 Z    ALL  0     ROOT ALL Z 15
     8 SEL2        9 GROUP        1 Z    SEL  0     **** SEL Z 16
     9 GLL5        2 GROUP        1 Z    GLL  0     **** GLL Z 20
@<TRIPOS>SET

