#    Name: 2w3v_TOP_1_ligand
#    Modification time : Tue Mar 25 03:38:52 2014

@<TRIPOS>MOLECULE
2w3v_TOP_1_ligand
   39    40     1     0     0
SMALL
NO_CHARGES


@<TRIPOS>ATOM
      1 C1         52.0400   22.6800   30.9990 C.ar      1 TOP1169     0.0000 
      2 N2         52.7790   22.6950   29.8620 N.ar      1 TOP1169     0.0000 
      3 C3         53.7700   21.7440   29.6900 C.ar      1 TOP1169     0.0000 
      4 N4         54.4860   21.7320   28.5630 N.pl3     1 TOP1169     0.0000 
      5 N5         54.0770   20.8430   30.6390 N.ar      1 TOP1169     0.0000 
      6 C6         53.3610   20.8290   31.7910 C.ar      1 TOP1169     0.0000 
      7 N7         53.6560   19.9380   32.7550 N.pl3     1 TOP1169     0.0000 
      8 C8         52.3110   21.7290   31.9970 C.ar      1 TOP1169     0.0000 
      9 C9         51.5340   21.6300   33.3160 C.3       1 TOP1169     0.0000 
     10 C10        50.3460   22.5620   33.3730 C.ar      1 TOP1169     0.0000 
     11 C11        49.2160   22.4700   32.5540 C.ar      1 TOP1169     0.0000 
     12 C12        48.1860   23.4240   32.7030 C.ar      1 TOP1169     0.0000 
     13 O13        47.0630   23.3870   31.9200 O.3       1 TOP1169     0.0000 
     14 C14        46.6480   22.2350   31.2020 C.3       1 TOP1169     0.0000 
     15 C15        48.2870   24.4680   33.6310 C.ar      1 TOP1169     0.0000 
     16 O16        47.2690   25.4010   33.7670 O.3       1 TOP1169     0.0000 
     17 C17        47.2240   26.5480   32.9180 C.3       1 TOP1169     0.0000 
     18 C18        49.4210   24.5440   34.4400 C.ar      1 TOP1169     0.0000 
     19 O19        49.5510   25.5290   35.3910 O.3       1 TOP1169     0.0000 
     20 C20        50.5120   25.4200   36.4510 C.3       1 TOP1169     0.0000 
     21 C21        50.4210   23.5830   34.3120 C.ar      1 TOP1169     0.0000 
     22 H          51.2764   23.3556   31.1515 H         1 TOP1169     0.0000 
     23 H          55.1756   21.0117   28.4874 H         1 TOP1169     0.0000 
     24 H          54.2683   22.4444   27.8958 H         1 TOP1169     0.0000 
     25 H          53.4646   20.2255   33.6935 H         1 TOP1169     0.0000 
     26 H          54.0403   19.0677   32.4471 H         1 TOP1169     0.0000 
     27 H          52.2194   21.8573   34.1449 H         1 TOP1169     0.0000 
     28 H          51.1938   20.5927   33.4458 H         1 TOP1169     0.0000 
     29 H          49.1321   21.7315   31.8619 H         1 TOP1169     0.0000 
     30 H          51.2508   23.6328   34.9411 H         1 TOP1169     0.0000 
     31 H          47.3386   21.9402   30.5416 H         1 TOP1169     0.0000 
     32 H          46.4748   21.4605   31.8105 H         1 TOP1169     0.0000 
     33 H          45.8048   22.4000   30.6904 H         1 TOP1169     0.0000 
     34 H          48.0435   27.1131   33.0134 H         1 TOP1169     0.0000 
     35 H          47.1541   26.2936   31.9534 H         1 TOP1169     0.0000 
     36 H          46.4393   27.1324   33.1246 H         1 TOP1169     0.0000 
     37 H          51.4460   25.3529   36.1001 H         1 TOP1169     0.0000 
     38 H          50.4841   26.2123   37.0605 H         1 TOP1169     0.0000 
     39 H          50.3521   24.6102   37.0155 H         1 TOP1169     0.0000 
@<TRIPOS>BOND
     1    2    1 ar   
     2    8    1 ar   
     3   22    1 1    
     4    3    2 ar   
     5    4    3 1    
     6    5    3 ar   
     7   23    4 1    
     8   24    4 1    
     9    6    5 ar   
    10    7    6 1    
    11    8    6 ar   
    12   25    7 1    
    13   26    7 1    
    14    9    8 1    
    15   10    9 1    
    16   27    9 1    
    17   28    9 1    
    18   11   10 ar   
    19   21   10 ar   
    20   12   11 ar   
    21   29   11 1    
    22   13   12 1    
    23   15   12 ar   
    24   14   13 1    
    25   31   14 1    
    26   32   14 1    
    27   33   14 1    
    28   16   15 1    
    29   18   15 ar   
    30   17   16 1    
    31   34   17 1    
    32   35   17 1    
    33   36   17 1    
    34   19   18 1    
    35   21   18 ar   
    36   20   19 1    
    37   37   20 1    
    38   38   20 1    
    39   39   20 1    
    40   30   21 1    
@<TRIPOS>SUBSTRUCTURE
     1 TOP1169     1 GROUP   
@<TRIPOS>SET

