#    Name: 4ded_NHU_1_INTS_M
#    Modification time : Mon Apr  7 22:32:54 2014

@<TRIPOS>MOLECULE
4ded_NHU_1_INTS_M
   68     0     9     0     0
SMALL
NO_CHARGES


@<TRIPOS>ATOM
      1 O          -2.7330  -34.3640    7.2805 O.2       1 ALC1        0.0000 
      2 O          -3.0620  -32.8350    6.8240 O.2       7 ALL1        0.0000 
      3 O          -2.4040  -35.8930    7.7370 O.2       4 ALP1        0.0000 
      4 N          -2.9095  -32.8965    9.5450 N.am      2 SEC2        0.0000 
      5 N          -3.4210  -31.6380    8.6900 N.am      8 SEL2        0.0000 
      6 N          -2.3980  -34.1550   10.4000 N.am      5 SEP2        0.0000 
      7 O          -0.9635  -31.2880    0.9620 O.2       1 ALC1        0.0000 
      8 O          -0.6230  -32.7370    0.8990 O.2       7 ALL1        0.0000 
      9 O          -1.3040  -29.8390    1.0250 O.2       4 ALP1        0.0000 
     10 CA         -1.1570  -31.3750    6.0665 C.3       3 GLC5        0.0000 
     11 CA         -2.5310  -33.0470    5.6490 C.3       9 GLL5        0.0000 
     12 CA          0.2170  -29.7030    6.4840 C.3       6 GLP5        0.0000 
     13 CA         -1.6050  -30.7010    6.9105 C.3       3 GLC5        0.0000 
     14 CA         -3.4270  -31.6990    7.3370 C.3       9 GLL5        0.0000 
     15 CA         -3.9260  -33.4890    8.4535 C.3       3 GLC5        0.0000 
     16 CA         -4.4250  -35.2790    9.5700 C.3       6 GLP5        0.0000 
     17 CA         -5.1895  -31.9895    7.8625 C.3       3 GLC5        0.0000 
     18 CA         -6.9520  -32.2800    8.3880 C.3       6 GLP5        0.0000 
     19 CA         -1.9820  -29.5945    6.8075 C.3       3 GLC5        0.0000 
     20 CA         -4.1810  -29.4860    7.1310 C.3       9 GLL5        0.0000 
     21 CA         -4.7520  -27.8200    9.7385 C.3       3 GLC5        0.0000 
     22 CA         -4.2060  -29.3330    8.5200 C.3       9 GLL5        0.0000 
     23 CA         -5.2980  -26.3070   10.9570 C.3       6 GLP5        0.0000 
     24 CA         -2.4935  -31.4995   10.5340 C.3       3 GLC5        0.0000 
     25 CA         -3.8120  -30.4540    9.2480 C.3       9 GLL5        0.0000 
     26 CA         -1.1750  -32.5450   11.8200 C.3       6 GLP5        0.0000 
     27 CA         -2.2280  -29.1655    4.0980 C.3       3 GLC5        0.0000 
     28 CA         -4.1990  -29.0240    4.1030 C.3       9 GLL5        0.0000 
     29 CA         -0.2570  -29.3070    4.0930 C.3       6 GLP5        0.0000 
     30 CA         -3.2180  -27.4530    4.8385 C.3       3 GLC5        0.0000 
     31 CA         -2.2370  -25.8820    5.5740 C.3       6 GLP5        0.0000 
     32 CA         -5.6095  -26.6320    1.4220 C.3       3 GLC5        0.0000 
     33 CA         -5.9100  -28.4050    2.4500 C.3       9 GLL5        0.0000 
     34 CA         -5.3090  -24.8590    0.3940 C.3       6 GLP5        0.0000 
     35 CA         -6.0585  -26.0455    2.6500 C.3       3 GLC5        0.0000 
     36 CA         -6.6930  -27.8060    3.4780 C.3       9 GLL5        0.0000 
     37 CA         -5.4240  -24.2850    1.8220 C.3       6 GLP5        0.0000 
     38 N          -7.2360  -26.4155    7.4475 N.am      2 SEC2        0.0000 
     39 N          -7.5470  -27.8770    6.6760 N.am      8 SEL2        0.0000 
     40 N          -6.9250  -24.9540    8.2190 N.am      5 SEP2        0.0000 
     41 N           1.0655  -34.3645    1.9740 N.am      2 SEC2        0.0000 
     42 N          -0.3850  -34.9370    1.5690 N.am      8 SEL2        0.0000 
     43 N           2.5160  -33.7920    2.3790 N.am      5 SEP2        0.0000 
     44 CA         -2.5168  -34.9635    3.8522 C.3       3 GLC5        0.0000 
     45 CA         -0.7470  -34.0730    4.2970 C.3       9 GLL5        0.0000 
     46 CA         -3.9890  -36.1040    4.0100 C.3       6 GLP5        0.0000 
     47 CA         -1.5428  -30.9932    3.9495 C.3       3 GLC5        0.0000 
     48 CA         -2.5330  -32.8090    3.1730 C.3       9 GLL5        0.0000 
     49 CA         -3.4087  -34.3918    3.9080 C.3       3 GLC5        0.0000 
     50 CA         -4.8003  -33.1442    5.6190 C.3       3 GLC5        0.0000 
     51 CA         -3.1240  -32.5500    4.4390 C.3       9 GLL5        0.0000 
     52 CA         -6.7730  -33.4900    6.1940 C.3       6 GLP5        0.0000 
     53 CA         -2.9623  -34.7665    4.8080 C.3       3 GLC5        0.0000 
     54 CA          0.1429  -32.3825    4.6929 C.3       3 GLC5        0.0000 
     55 CA         -1.3400  -33.8110    5.5630 C.3       9 GLL5        0.0000 
     56 CA          1.4780  -30.9480    4.7570 C.3       6 GLP5        0.0000 
     57 CA         -3.0638  -28.0302    7.3352 C.3       3 GLC5        0.0000 
     58 CA         -1.9340  -26.6510    6.8450 C.3       6 GLP5        0.0000 
     59 CA         -5.4325  -30.6608   10.1740 C.3       3 GLC5        0.0000 
     60 CA         -6.8560  -31.4280   11.4640 C.3       6 GLP5        0.0000 
     61 CA         -2.5464  -29.2289    9.3519 C.3       3 GLC5        0.0000 
     62 CA         -1.0900  -28.5260   10.1670 C.3       6 GLP5        0.0000 
     63 CA         -5.4774  -31.1059    8.4624 C.3       3 GLC5        0.0000 
     64 CA         -4.6010  -26.6743    5.3310 C.3       3 GLC5        0.0000 
     65 CA         -4.9690  -28.4320    5.1660 C.3       9 GLL5        0.0000 
     66 CA         -3.5960  -25.2280    5.6600 C.3       6 GLP5        0.0000 
     67 CA         -3.8429  -28.0801    1.8251 C.3       3 GLC5        0.0000 
     68 CA         -2.5140  -27.4490    0.7090 C.3       6 GLP5        0.0000 
@<TRIPOS>BOND
@<TRIPOS>SUBSTRUCTURE
     1 ALC1        1 GROUP        1 X    ALC  0     ROOT ALC X 1
     2 SEC2        4 GROUP        1 X    SEC  0     **** SEC X 2
     3 GLC5       10 GROUP        1 X    GLC  0     **** GLC X 6
     4 ALP1        3 GROUP        1 Y    ALP  0     ROOT ALP Y 8
     5 SEP2        6 GROUP        1 Y    SEP  0     **** SEP Y 9
     6 GLP5       12 GROUP        1 Y    GLP  0     **** GLP Y 13
     7 ALL1        2 GROUP        1 Z    ALL  0     ROOT ALL Z 15
     8 SEL2        5 GROUP        1 Z    SEL  0     **** SEL Z 16
     9 GLL5       11 GROUP        1 Z    GLL  0     **** GLL Z 20
@<TRIPOS>SET

