#    Name: 4ded_NHU_1_ligand
#    Modification time : Mon Apr  7 22:32:54 2014

@<TRIPOS>MOLECULE
4ded_NHU_1_ligand
   42    44     1     0     0
SMALL
NO_CHARGES


@<TRIPOS>ATOM
      1 N01        -3.0620  -32.8350    6.8240 N.pl3     1 NHU501      0.0000 
      2 N02        -3.7940  -30.6670    6.5190 N.ar      1 NHU501      0.0000 
      3 N03        -3.4210  -31.6380    8.6900 N.ar      1 NHU501      0.0000 
      4 N04        -4.5370  -28.4380    6.4130 N.pl3     1 NHU501      0.0000 
      5 C05        -0.7470  -34.0730    4.2970 C.ar      1 NHU501      0.0000 
      6 N05        -7.2560  -25.7670    5.7640 N.am      1 NHU501      0.0000 
      7 C06        -1.3420  -33.5730    3.0920 C.ar      1 NHU501      0.0000 
      8 N06        -0.6230  -32.7370    0.8990 N.am      1 NHU501      0.0000 
      9 C07        -2.5330  -32.8090    3.1730 C.ar      1 NHU501      0.0000 
     10 C08        -3.1240  -32.5500    4.4390 C.ar      1 NHU501      0.0000 
     11 C09        -2.5310  -33.0470    5.6490 C.ar      1 NHU501      0.0000 
     12 C10        -1.3400  -33.8110    5.5630 C.ar      1 NHU501      0.0000 
     13 C11        -0.7710  -33.8240    1.8670 C.2       1 NHU501      0.0000 
     14 C12        -3.4270  -31.6990    7.3370 C.ar      1 NHU501      0.0000 
     15 C13        -4.1810  -29.4860    7.1310 C.ar      1 NHU501      0.0000 
     16 C14        -4.2060  -29.3330    8.5200 C.ar      1 NHU501      0.0000 
     17 C15        -3.8120  -30.4540    9.2480 C.ar      1 NHU501      0.0000 
     18 C16        -4.9690  -28.4320    5.1660 C.ar      1 NHU501      0.0000 
     19 C17        -4.1990  -29.0240    4.1030 C.ar      1 NHU501      0.0000 
     20 C18        -4.6680  -29.0110    2.7620 C.ar      1 NHU501      0.0000 
     21 C19        -5.9100  -28.4050    2.4500 C.ar      1 NHU501      0.0000 
     22 C20        -6.6930  -27.8060    3.4780 C.ar      1 NHU501      0.0000 
     23 C21        -6.2430  -27.8090    4.8380 C.ar      1 NHU501      0.0000 
     24 C22        -7.0280  -27.2160    5.8010 C.2       1 NHU501      0.0000 
     25 O23        -7.5470  -27.8770    6.6760 O.2       1 NHU501      0.0000 
     26 O25        -0.3850  -34.9370    1.5690 O.2       1 NHU501      0.0000 
     27 H          -3.2182  -33.7330    7.4555 H         1 NHU501      0.0000 
     28 H          -4.4657  -27.4577    6.9101 H         1 NHU501      0.0000 
     29 H           0.1116  -34.6225    4.2403 H         1 NHU501      0.0000 
     30 H          -6.7935  -25.2674    5.0316 H         1 NHU501      0.0000 
     31 H          -7.8553  -25.3976    6.4742 H         1 NHU501      0.0000 
     32 H          -0.2375  -32.9880    0.0111 H         1 NHU501      0.0000 
     33 H          -0.9195  -31.8322    1.2047 H         1 NHU501      0.0000 
     34 H          -2.9658  -32.4455    2.3262 H         1 NHU501      0.0000 
     35 H          -3.9858  -32.0014    4.4965 H         1 NHU501      0.0000 
     36 H          -0.9051  -34.1751    6.4109 H         1 NHU501      0.0000 
     37 H          -4.4851  -28.4848    8.9553 H         1 NHU501      0.0000 
     38 H          -3.8200  -30.3711   10.3075 H         1 NHU501      0.0000 
     39 H          -3.3003  -29.4592    4.3256 H         1 NHU501      0.0000 
     40 H          -4.1089  -29.4387    2.0246 H         1 NHU501      0.0000 
     41 H          -6.2473  -28.3959    1.4878 H         1 NHU501      0.0000 
     42 H          -7.5862  -27.3683    3.2465 H         1 NHU501      0.0000 
@<TRIPOS>BOND
     1   11    1 1    
     2   14    1 1    
     3   27    1 1    
     4   14    2 ar   
     5   15    2 ar   
     6   14    3 ar   
     7   17    3 ar   
     8   15    4 1    
     9   18    4 1    
    10   28    4 1    
    11    7    5 ar   
    12   12    5 ar   
    13   29    5 1    
    14   24    6 am   
    15   30    6 1    
    16   31    6 1    
    17    9    7 ar   
    18   13    7 1    
    19   13    8 am   
    20   32    8 1    
    21   33    8 1    
    22   10    9 ar   
    23   34    9 1    
    24   11   10 ar   
    25   35   10 1    
    26   12   11 ar   
    27   36   12 1    
    28   26   13 2    
    29   16   15 ar   
    30   17   16 ar   
    31   37   16 1    
    32   38   17 1    
    33   19   18 ar   
    34   23   18 ar   
    35   20   19 ar   
    36   39   19 1    
    37   21   20 ar   
    38   40   20 1    
    39   22   21 ar   
    40   41   21 1    
    41   23   22 ar   
    42   42   22 1    
    43   24   23 1    
    44   25   24 2    
@<TRIPOS>SUBSTRUCTURE
     1 NHU501      1 GROUP   
@<TRIPOS>SET

