#    Name: 4E2W_1_CAVITY_N1_6.mol2
#    Modification time : Mon Mar 10 15:53:36 2014

@<TRIPOS>MOLECULE
4E2W_1_CAVITY_N1_6.mol2
   60     0     5     0     0
SMALL
NO_CHARGES


@<TRIPOS>ATOM
      1 CZ         20.3580   20.8653   11.6317 C.ar      4 PHE5        0.0000 
      2 CA         21.5799   21.2378   10.8455 C.3       5 GLY6        0.0000 
      3 CA         21.9973   19.7974   10.8118 C.3       5 GLY6        0.0000 
      4 CA         23.2191   20.1699   10.0255 C.3       5 GLY6        0.0000 
      5 NZ         23.6366   18.7296    9.9918 N.2       3 LYS4        0.0000 
      6 CA         20.8165   21.0465    9.5685 C.3       5 GLY6        0.0000 
      7 CZ         21.2339   19.6061    9.5348 C.ar      4 PHE5        0.0000 
      8 CA         22.4558   19.9786    8.7485 C.3       5 GLY6        0.0000 
      9 CA         23.6777   20.3511    7.9622 C.3       5 GLY6        0.0000 
     10 CZ         22.8732   18.5382    8.7148 C.ar      4 PHE5        0.0000 
     11 NZ         24.0951   18.9107    7.9285 N.2       3 LYS4        0.0000 
     12 N          25.3169   19.2832    7.1423 N.2       2 ALA2        0.0000 
     13 NZ         24.5125   17.4704    7.8948 N.2       3 LYS4        0.0000 
     14 N          21.6924   19.7872    7.4715 N.2       2 ALA2        0.0000 
     15 OG         22.9143   20.1597    6.6853 O.2       1 SER1        0.0000 
     16 CZ         22.1098   18.3469    7.4378 C.ar      4 PHE5        0.0000 
     17 OG         23.3317   18.7194    6.6516 O.2       1 SER1        0.0000 
     18 N          24.5536   19.0919    5.8653 N.2       2 ALA2        0.0000 
     19 N          25.7755   19.4644    5.0790 N.2       2 ALA2        0.0000 
     20 CZ         22.5272   16.9065    7.4041 C.ar      4 PHE5        0.0000 
     21 CZ         23.7491   17.2790    6.6179 C.ar      4 PHE5        0.0000 
     22 O          24.9710   17.6515    5.8316 O.2       2 ALA2        0.0000 
     23 N          21.3464   18.1555    6.1609 N.2       2 ALA2        0.0000 
     24 N          22.5683   18.5280    5.3746 N.2       2 ALA2        0.0000 
     25 N          23.7902   18.9005    4.5883 N.2       2 ALA2        0.0000 
     26 N          25.0121   19.2730    3.8021 N.2       2 ALA2        0.0000 
     27 OG         22.9857   17.0877    5.3409 O.2       1 SER1        0.0000 
     28 CZ         24.2076   17.4602    4.5546 C.ar      4 PHE5        0.0000 
     29 OG         25.4295   17.8326    3.7684 O.2       1 SER1        0.0000 
     30 N          20.5830   17.9642    4.8839 N.2       2 ALA2        0.0000 
     31 N          21.8049   18.3367    4.0976 N.2       2 ALA2        0.0000 
     32 N          23.0268   18.7092    3.3114 N.2       2 ALA2        0.0000 
     33 CA         24.2487   19.0817    2.5251 C.3       5 GLY6        0.0000 
     34 OG         22.2223   16.8963    4.0639 O.2       1 SER1        0.0000 
     35 CZ         23.4442   17.2688    3.2777 C.ar      4 PHE5        0.0000 
     36 CZ         24.6661   17.6413    2.4914 C.ar      4 PHE5        0.0000 
     37 OG         25.8880   18.0138    1.7051 O.2       1 SER1        0.0000 
     38 NZ         19.8196   17.7728    3.6070 N.2       3 LYS4        0.0000 
     39 N          21.0415   18.1453    2.8207 N.2       2 ALA2        0.0000 
     40 CA         22.2634   18.5178    2.0344 C.3       5 GLY6        0.0000 
     41 OG         20.2370   16.3325    3.5733 O.2       1 SER1        0.0000 
     42 CZ         21.4589   16.7050    2.7870 C.ar      4 PHE5        0.0000 
     43 CZ         22.6808   17.0775    2.0007 C.ar      4 PHE5        0.0000 
     44 CZ         23.9027   17.4500    1.2144 C.ar      4 PHE5        0.0000 
     45 OG         20.6544   14.8921    3.5396 O.2       1 SER1        0.0000 
     46 CZ         21.8763   15.2646    2.7533 C.ar      4 PHE5        0.0000 
     47 N          19.8607   19.3943    1.5774 N.2       2 ALA2        0.0000 
     48 OG         19.0562   17.5815    2.3300 O.2       1 SER1        0.0000 
     49 N          20.2781   17.9540    1.5437 N.2       2 ALA2        0.0000 
     50 CA         21.5000   18.3265    0.7574 C.3       5 GLY6        0.0000 
     51 OG         19.4736   16.1411    2.2963 O.2       1 SER1        0.0000 
     52 OG         20.6955   16.5136    1.5100 O.2       1 SER1        0.0000 
     53 CZ         21.9174   16.8861    0.7237 C.ar      4 PHE5        0.0000 
     54 N          23.1393   17.2586   -0.0625 N.2       2 ALA2        0.0000 
     55 OG         19.8910   14.7008    2.2626 O.2       1 SER1        0.0000 
     56 CZ         21.1129   15.0733    1.4763 C.ar      4 PHE5        0.0000 
     57 N          20.3192   19.5755   -0.4858 N.2       2 ALA2        0.0000 
     58 CA         20.7366   18.1351   -0.5195 C.3       5 GLY6        0.0000 
     59 N          21.9585   18.5076   -1.3058 N.2       2 ALA2        0.0000 
     60 O          21.1540   16.6948   -0.5532 O.2       2 ALA2        0.0000 
@<TRIPOS>BOND
@<TRIPOS>SUBSTRUCTURE
     1 SER1       15 GROUP   
     2 ALA2       12 GROUP   
     3 LYS4        5 GROUP   
     4 PHE5        1 GROUP   
     5 GLY6        2 GROUP   
@<TRIPOS>SET

