#    Name: 4e2w_SAH_1_INTS_M
#    Modification time : Mon Apr  7 23:15:47 2014

@<TRIPOS>MOLECULE
4e2w_SAH_1_INTS_M
   92     0    12     0     0
SMALL
NO_CHARGES


@<TRIPOS>ATOM
      1 OD1        28.3080   22.2730    3.9670 O.co2     3 ASC3        0.0000 
      2 OD1        26.8420   21.0260    3.5430 O.co2    11 ASL3        0.0000 
      3 OD1        29.7740   23.5200    4.3910 O.co2     7 ASP3        0.0000 
      4 O          27.0465   21.0180    5.0225 O.2       1 ALC1        0.0000 
      5 O          26.8420   21.0260    3.5430 O.2       9 ALL1        0.0000 
      6 O          27.2510   21.0100    6.5020 O.2       5 ALP1        0.0000 
      7 O          25.5965   21.7975    3.2060 O.2       1 ALC1        0.0000 
      8 O          24.3510   22.5690    2.8690 O.2       5 ALP1        0.0000 
      9 CA         27.7310   17.7615    2.6590 C.3       4 GLC5        0.0000 
     10 CA         26.6900   19.5720    3.2820 C.3      12 GLL5        0.0000 
     11 CA         28.7720   15.9510    2.0360 C.3       8 GLP5        0.0000 
     12 CA         23.3115   19.9320    2.4705 C.3       4 GLC5        0.0000 
     13 CA         24.2320   18.9090    3.9550 C.3      12 GLL5        0.0000 
     14 CA         22.3910   20.9550    0.9860 C.3       8 GLP5        0.0000 
     15 CA         22.9680   16.0705    6.3285 C.3       4 GLC5        0.0000 
     16 CA         23.4180   17.7930    5.0660 C.3      12 GLL5        0.0000 
     17 CA         22.5180   14.3480    7.5910 C.3       8 GLP5        0.0000 
     18 CA         23.8605   16.0855    4.0575 C.3       4 GLC5        0.0000 
     19 CA         24.3030   14.3780    3.0490 C.3       8 GLP5        0.0000 
     20 N          24.9640   20.7040    0.1660 N.am      2 SEC2        0.0000 
     21 N          25.9210   20.3440    1.1930 N.am     10 SEL2        0.0000 
     22 N          24.0070   21.0640   -0.8610 N.am      6 SEP2        0.0000 
     23 N          27.1225   17.3240    2.1435 N.am      2 SEC2        0.0000 
     24 N          26.4380   18.2430    1.3280 N.am     10 SEL2        0.0000 
     25 N          27.8070   16.4050    2.9590 N.am      6 SEP2        0.0000 
     26 N          26.2720   17.9055    0.0685 N.am      2 SEC2        0.0000 
     27 N          26.1060   17.5680   -1.1910 N.am      6 SEP2        0.0000 
     28 CA         24.8700   20.5770    7.8870 C.3       4 GLC5        0.0000 
     29 CA         23.5310   19.0930    7.4110 C.3      12 GLL5        0.0000 
     30 CA         26.2090   22.0610    8.3630 C.3       8 GLP5        0.0000 
     31 CA         23.0485   21.2415    7.4560 C.3       4 GLC5        0.0000 
     32 CA         22.5660   23.3900    7.5010 C.3       8 GLP5        0.0000 
     33 N          25.5700   16.2605    7.4165 N.am      2 SEC2        0.0000 
     34 N          24.6610   17.2340    8.4340 N.am     10 SEL2        0.0000 
     35 N          26.4790   15.2870    6.3990 N.am      6 SEP2        0.0000 
     36 O          25.7170   17.8940    9.0470 O.2       1 ALC1        0.0000 
     37 O          24.6610   17.2340    8.4340 O.2       9 ALL1        0.0000 
     38 O          26.7730   18.5540    9.6600 O.2       5 ALP1        0.0000 
     39 O          25.2150   17.5210    9.9485 O.2       1 ALC1        0.0000 
     40 O          25.7690   17.8080   11.4630 O.2       5 ALP1        0.0000 
     41 CA         23.0795   19.0695   11.6340 C.3       4 GLC5        0.0000 
     42 CA         22.8020   18.3380    9.5700 C.3      12 GLL5        0.0000 
     43 CA         23.3570   19.8010   13.6980 C.3       8 GLP5        0.0000 
     44 N          23.2655   16.4720   11.4830 N.am      2 SEC2        0.0000 
     45 N          23.3030   17.6850   10.7380 N.am     10 SEL2        0.0000 
     46 N          23.2280   15.2590   12.2280 N.am      6 SEP2        0.0000 
     47 O          24.5360   17.7465   11.1005 O.2       1 ALC1        0.0000 
     48 O          23.3030   17.6850   10.7380 O.2       9 ALL1        0.0000 
     49 CA         24.7130   20.9350    8.9500 C.3       4 GLC5        0.0000 
     50 CA         23.2170   19.8090    9.5370 C.3      12 GLL5        0.0000 
     51 CA         23.9795   20.0525   11.4380 C.3       4 GLC5        0.0000 
     52 CA         24.7420   20.2960   13.3390 C.3       8 GLP5        0.0000 
     53 CA         22.8915   21.5995    8.5190 C.3       4 GLC5        0.0000 
     54 CA         23.1120   24.9545   10.8915 C.3       4 GLC5        0.0000 
     55 CA         22.0100   23.7990   12.2140 C.3      12 GLL5        0.0000 
     56 CA         24.2140   26.1100    9.5690 C.3       8 GLP5        0.0000 
     57 CA         22.5550   23.6705   14.0695 C.3       4 GLC5        0.0000 
     58 CA         23.1000   23.5420   15.9250 C.3       8 GLP5        0.0000 
     59 CA         23.2010   25.5905   12.7545 C.3       4 GLC5        0.0000 
     60 CA         24.3920   27.3820   13.2950 C.3       8 GLP5        0.0000 
     61 O          21.3010   25.8840   13.6045 O.2       1 ALC1        0.0000 
     62 O          21.0650   24.5140   12.8500 O.2       9 ALL1        0.0000 
     63 O          21.5370   27.2540   14.3590 O.2       5 ALP1        0.0000 
     64 O          19.7190   24.3355   13.4360 O.2       1 ALC1        0.0000 
     65 O          18.3730   24.1570   14.0220 O.2       5 ALP1        0.0000 
     66 N          23.5325   24.8555   13.5105 N.am      2 SEC2        0.0000 
     67 N          23.3070   24.1440   12.2130 N.am     10 SEL2        0.0000 
     68 N          23.7580   25.5670   14.8080 N.am      6 SEP2        0.0000 
     69 CA         24.2635   24.7960   10.5945 C.3       4 GLC5        0.0000 
     70 CA         24.3130   23.4820   11.6200 C.3      12 GLL5        0.0000 
     71 CA         25.2610   22.7715    9.9915 C.3       4 GLC5        0.0000 
     72 CA         25.9520   24.0465   12.3800 C.3       4 GLC5        0.0000 
     73 CA         27.5910   24.6110   13.1400 C.3       8 GLP5        0.0000 
     74 CA         24.5275   21.8890   12.4795 C.3       4 GLC5        0.0000 
     75 CA         23.7065   23.5120   13.7725 C.3       4 GLC5        0.0000 
     76 CA         24.3525   25.4320   12.4575 C.3       4 GLC5        0.0000 
     77 CA         23.4395   23.4360    9.5605 C.3       4 GLC5        0.0000 
     78 CA         24.5430   21.9595    9.6190 C.3       4 GLC5        0.0000 
     79 CA         22.8770   21.8580   10.8750 C.3      12 GLL5        0.0000 
     80 CA         23.8095   21.0770   12.1070 C.3       4 GLC5        0.0000 
     81 CA         27.1902   18.1167    4.9373 C.3       4 GLC5        0.0000 
     82 CA         25.7330   18.8090    4.1810 C.3      12 GLL5        0.0000 
     83 CA         28.1690   17.0430    6.1430 C.3       8 GLP5        0.0000 
     84 CA         21.4165   17.4395    9.5510 C.3       4 GLC5        0.0000 
     85 CA         23.3700   17.8340    8.2520 C.3      12 GLL5        0.0000 
     86 CA         19.7470   16.7930   10.1910 C.3       8 GLP5        0.0000 
     87 CA         22.8020   16.2170    8.2510 C.3       4 GLC5        0.0000 
     88 CA         22.6145   21.4857   12.7780 C.3       4 GLC5        0.0000 
     89 CA         21.7340   22.5420   11.5020 C.3      12 GLL5        0.0000 
     90 CA         22.4357   22.7950    9.3448 C.3       4 GLC5        0.0000 
     91 CA         20.8485   24.3678   10.8495 C.3       4 GLC5        0.0000 
     92 CA         19.8250   25.5650    9.8410 C.3       8 GLP5        0.0000 
@<TRIPOS>BOND
@<TRIPOS>SUBSTRUCTURE
     1 ALC1        4 GROUP        1 X    ALC  0     ROOT ALC X 1
     2 SEC2       20 GROUP        1 X    SEC  0     **** SEC X 2
     3 ASC3        1 GROUP        1 X    ASC  0     **** ASC X 3
     4 GLC5        9 GROUP        1 X    GLC  0     **** GLC X 6
     5 ALP1        6 GROUP        1 Y    ALP  0     ROOT ALP Y 8
     6 SEP2       22 GROUP        1 Y    SEP  0     **** SEP Y 9
     7 ASP3        3 GROUP        1 Y    ASP  0     **** ASP Y 10
     8 GLP5       11 GROUP        1 Y    GLP  0     **** GLP Y 13
     9 ALL1        5 GROUP        1 Z    ALL  0     ROOT ALL Z 15
    10 SEL2       21 GROUP        1 Z    SEL  0     **** SEL Z 16
    11 ASL3        2 GROUP        1 Z    ASL  0     **** ASL Z 17
    12 GLL5       10 GROUP        1 Z    GLL  0     **** GLL Z 20
@<TRIPOS>SET

