#    Name: 4e2w_SAH_1_ligand
#    Modification time : Mon Apr  7 23:15:48 2014

@<TRIPOS>MOLECULE
4e2w_SAH_1_ligand
   46    48     1     0     0
SMALL
NO_CHARGES


@<TRIPOS>ATOM
      1 N          26.8420   21.0260    3.5430 N.4       1 SAH505      0.0000 
      2 CA         26.6900   19.5720    3.2820 C.3       1 SAH505      0.0000 
      3 CB         25.7330   18.8090    4.1810 C.3       1 SAH505      0.0000 
      4 CG         24.2320   18.9090    3.9550 C.3       1 SAH505      0.0000 
      5 SD         23.4180   17.7930    5.0660 S.3       1 SAH505      0.0000 
      6 C          26.3410   19.3630    1.8320 C.2       1 SAH505      0.0000 
      7 O          25.9210   20.3440    1.1930 O.co2     1 SAH505      0.0000 
      8 OXT        26.4380   18.2430    1.3280 O.co2     1 SAH505      0.0000 
      9 C5'        22.6790   18.9950    6.1420 C.3       1 SAH505      0.0000 
     10 C4'        23.5310   19.0930    7.4110 C.3       1 SAH505      0.0000 
     11 O4'        22.9380   20.1560    8.1730 O.3       1 SAH505      0.0000 
     12 C3'        23.3700   17.8340    8.2520 C.3       1 SAH505      0.0000 
     13 O3'        24.6610   17.2340    8.4340 O.3       1 SAH505      0.0000 
     14 C2'        22.8020   18.3380    9.5700 C.3       1 SAH505      0.0000 
     15 O2'        23.3030   17.6850   10.7380 O.3       1 SAH505      0.0000 
     16 C1'        23.2170   19.8090    9.5370 C.3       1 SAH505      0.0000 
     17 N9         22.3700   20.7370   10.3410 N.pl3     1 SAH505      0.0000 
     18 C8         21.0530   20.7240   10.5480 C.2       1 SAH505      0.0000 
     19 N7         20.6230   21.7780   11.2750 N.2       1 SAH505      0.0000 
     20 C5         21.7340   22.5420   11.5020 C.ar      1 SAH505      0.0000 
     21 C6         22.0100   23.7990   12.2140 C.ar      1 SAH505      0.0000 
     22 N6         21.0650   24.5140   12.8500 N.pl3     1 SAH505      0.0000 
     23 N1         23.3070   24.1440   12.2130 N.ar      1 SAH505      0.0000 
     24 C2         24.3130   23.4820   11.6200 C.ar      1 SAH505      0.0000 
     25 N3         24.1510   22.3470   10.9430 N.ar      1 SAH505      0.0000 
     26 C4         22.8770   21.8580   10.8750 C.ar      1 SAH505      0.0000 
     27 H          27.7050   19.0995    3.4125 H         1 SAH505      0.0000 
     28 H          25.9469   19.1018    5.2534 H         1 SAH505      0.0000 
     29 H          26.0200   17.7143    4.1537 H         1 SAH505      0.0000 
     30 H          23.9277   18.5689    2.9997 H         1 SAH505      0.0000 
     31 H          23.8298   19.8525    4.2174 H         1 SAH505      0.0000 
     32 H          21.7133   18.6065    6.3193 H         1 SAH505      0.0000 
     33 H          22.6884   19.8801    5.5663 H         1 SAH505      0.0000 
     34 H          24.5188   19.2676    7.1775 H         1 SAH505      0.0000 
     35 H          22.6701   17.2046    7.7865 H         1 SAH505      0.0000 
     36 H          21.7301   18.3215    9.4916 H         1 SAH505      0.0000 
     37 H          24.2307   19.9081    9.7415 H         1 SAH505      0.0000 
     38 H          20.4410   20.0140   10.2056 H         1 SAH505      0.0000 
     39 H          21.3685   25.3694   13.2699 H         1 SAH505      0.0000 
     40 H          20.1431   24.1266   12.8463 H         1 SAH505      0.0000 
     41 H          25.2987   23.8931   11.6983 H         1 SAH505      0.0000 
     42 H          27.4871   21.4518    2.9085 H         1 SAH505      0.0000 
     43 H          25.9737   21.5130    3.4489 H         1 SAH505      0.0000 
     44 H          27.1793   21.2041    4.4674 H         1 SAH505      0.0000 
     45 H          25.2084   17.9327    8.8946 H         1 SAH505      0.0000 
     46 H          24.2747   17.9193   10.7687 H         1 SAH505      0.0000 
@<TRIPOS>BOND
     1    2    1 1    
     2   42    1 1    
     3   43    1 1    
     4   44    1 1    
     5    3    2 1    
     6    6    2 1    
     7   27    2 1    
     8    4    3 1    
     9   28    3 1    
    10   29    3 1    
    11    5    4 1    
    12   30    4 1    
    13   31    4 1    
    14    9    5 1    
    15    7    6 ar   
    16    8    6 ar   
    17   10    9 1    
    18   32    9 1    
    19   33    9 1    
    20   11   10 1    
    21   12   10 1    
    22   34   10 1    
    23   16   11 1    
    24   13   12 1    
    25   14   12 1    
    26   35   12 1    
    27   45   13 1    
    28   15   14 1    
    29   16   14 1    
    30   36   14 1    
    31   46   15 1    
    32   17   16 1    
    33   37   16 1    
    34   18   17 1    
    35   26   17 1    
    36   19   18 2    
    37   38   18 1    
    38   20   19 1    
    39   21   20 ar   
    40   26   20 ar   
    41   22   21 1    
    42   23   21 ar   
    43   39   22 1    
    44   40   22 1    
    45   24   23 ar   
    46   25   24 ar   
    47   41   24 1    
    48   26   25 ar   
@<TRIPOS>SUBSTRUCTURE
     1 SAH505      1 GROUP   
@<TRIPOS>SET

