#    Name: 1E2L_2_CAVITY_N1_ALL.mol2
#    Modification time : Mon Mar 10 19:35:05 2014

@<TRIPOS>MOLECULE
1E2L_2_CAVITY_N1_ALL.mol2
   71     0     6     0     0
SMALL
NO_CHARGES


@<TRIPOS>ATOM
      1 N          23.5753   21.3053    9.0267 N.2       2 ALA2        0.0000 
      2 CA         23.0335   22.4134    8.1731 C.3       5 GLY6        0.0000 
      3 CZ         22.1938   21.0252    9.5397 C.ar      4 PHE5        0.0000 
      4 CA         21.6521   22.1332    8.6861 C.3       5 GLY6        0.0000 
      5 CZ         20.8124   20.7450   10.0527 C.ar      4 PHE5        0.0000 
      6 CA         20.2707   21.8531    9.1991 C.3       5 GLY6        0.0000 
      7 CA         19.7289   22.9611    8.3455 C.3       5 GLY6        0.0000 
      8 CZ         19.9727   19.3567   11.4194 C.ar      4 PHE5        0.0000 
      9 CZ         19.4310   20.4648   10.5658 C.ar      4 PHE5        0.0000 
     10 DU         18.8892   21.5729    9.7121 H         6 CUB7        0.0000 
     11 CZ         18.3475   22.6810    8.8585 C.ar      4 PHE5        0.0000 
     12 CA         18.0496   20.1846   11.0788 C.3       5 GLY6        0.0000 
     13 CA         17.5078   21.2927   10.2251 C.3       5 GLY6        0.0000 
     14 NZ         16.9661   22.4008    9.3715 N.2       3 LYS4        0.0000 
     15 CA         16.1264   21.0125   10.7381 C.3       5 GLY6        0.0000 
     16 NZ         15.5847   22.1206    9.8845 N.2       3 LYS4        0.0000 
     17 N          23.2530   23.3848    9.2948 N.2       2 ALA2        0.0000 
     18 CA         22.7113   24.4929    8.4411 C.3       5 GLY6        0.0000 
     19 CZ         21.8716   23.1047    9.8078 C.ar      4 PHE5        0.0000 
     20 CA         21.3299   24.2127    8.9541 C.3       5 GLY6        0.0000 
     21 CZ         20.7881   25.3208    8.1005 C.ar      4 PHE5        0.0000 
     22 CZ         20.4902   22.8245   10.3208 C.ar      4 PHE5        0.0000 
     23 CZ         19.9484   23.9326    9.4671 C.ar      4 PHE5        0.0000 
     24 OG         19.1088   22.5443   10.8338 O.2       1 SER1        0.0000 
     25 O          18.5670   23.6524    9.9802 O.2       2 ALA2        0.0000 
     26 O          17.1856   23.3722   10.4932 O.2       2 ALA2        0.0000 
     27 O          15.8042   23.0920   11.0062 O.2       2 ALA2        0.0000 
     28 CA         22.9308   25.4643    9.5628 C.3       5 GLY6        0.0000 
     29 CZ         21.5494   25.1842   10.0758 C.ar      4 PHE5        0.0000 
     30 CA         20.1680   24.9040   10.5888 C.3       5 GLY6        0.0000 
     31 CZ         21.7548   19.0823    7.2964 C.ar      4 PHE5        0.0000 
     32 CA         21.2130   20.1904    6.4428 C.3       5 GLY6        0.0000 
     33 CZ         20.3734   18.8021    7.8094 C.ar      4 PHE5        0.0000 
     34 CA         19.8316   19.9102    6.9558 C.3       5 GLY6        0.0000 
     35 CZ         18.9919   18.5219    8.3224 C.ar      4 PHE5        0.0000 
     36 CA         18.4502   19.6300    7.4688 C.3       5 GLY6        0.0000 
     37 CA         17.9085   20.7381    6.6152 C.3       5 GLY6        0.0000 
     38 CZ         18.1523   17.1337    9.6891 C.ar      4 PHE5        0.0000 
     39 DU         17.6105   18.2418    8.8354 H         6 CUB7        0.0000 
     40 DU         17.0688   19.3498    7.9818 H         6 CUB7        0.0000 
     41 CA         16.5270   20.4579    7.1282 C.3       5 GLY6        0.0000 
     42 CA         15.9853   21.5660    6.2745 C.3       5 GLY6        0.0000 
     43 DU         15.6874   19.0697    8.4948 H         6 CUB7        0.0000 
     44 DU         15.1456   20.1777    7.6412 H         6 CUB7        0.0000 
     45 NZ         14.6039   21.2858    6.7875 N.2       3 LYS4        0.0000 
     46 CA         23.8975   19.2258    8.7587 C.3       5 GLY6        0.0000 
     47 CA         23.3557   20.3339    7.9051 C.3       5 GLY6        0.0000 
     48 CA         22.8140   21.4420    7.0514 C.3       5 GLY6        0.0000 
     49 CZ         22.5161   18.9457    9.2717 C.ar      4 PHE5        0.0000 
     50 CZ         21.9743   20.0537    8.4181 C.ar      4 PHE5        0.0000 
     51 CA         21.4326   21.1618    7.5644 C.3       5 GLY6        0.0000 
     52 CZ         21.1346   18.6655    9.7847 C.ar      4 PHE5        0.0000 
     53 CZ         20.5929   19.7736    8.9311 C.ar      4 PHE5        0.0000 
     54 CA         20.0511   20.8816    8.0774 C.3       5 GLY6        0.0000 
     55 CA         19.5094   21.9897    7.2238 C.3       5 GLY6        0.0000 
     56 O          19.7532   18.3853   10.2977 O.2       2 ALA2        0.0000 
     57 DU         19.2115   19.4934    9.4441 H         6 CUB7        0.0000 
     58 DU         18.6697   20.6014    8.5905 H         6 CUB7        0.0000 
     59 CZ         18.1280   21.7095    7.7368 C.ar      4 PHE5        0.0000 
     60 O          18.3718   18.1051   10.8107 O.2       2 ALA2        0.0000 
     61 CA         17.8300   19.2132    9.9571 C.3       5 GLY6        0.0000 
     62 DU         17.2883   20.3213    9.1035 H         6 CUB7        0.0000 
     63 NZ         16.7466   21.4293    8.2498 N.2       3 LYS4        0.0000 
     64 NZ         16.2048   22.5374    7.3962 N.2       3 LYS4        0.0000 
     65 CA         16.4486   18.9330   10.4701 C.3       5 GLY6        0.0000 
     66 CA         15.9069   20.0411    9.6165 C.3       5 GLY6        0.0000 
     67 NZ         15.3651   21.1492    8.7628 N.2       3 LYS4        0.0000 
     68 CZ         18.7724   17.5505    7.2008 C.ar      4 PHE5        0.0000 
     69 CA         16.8493   18.3784    6.8601 C.3       5 GLY6        0.0000 
     70 CA         16.3075   19.4865    6.0065 C.3       5 GLY6        0.0000 
     71 CA         14.3843   20.3144    5.6659 C.3       5 GLY6        0.0000 
@<TRIPOS>BOND
@<TRIPOS>SUBSTRUCTURE
     1 SER1       24 GROUP   
     2 ALA2        1 GROUP   
     3 LYS4       14 GROUP   
     4 PHE5        3 GROUP   
     5 GLY6        2 GROUP   
     6 CUB7       10 GROUP   
@<TRIPOS>SET

