#    Name: 1e2l_TMC_2_INTS_M
#    Modification time : Mon Mar 24 22:46:01 2014

@<TRIPOS>MOLECULE
1e2l_TMC_2_INTS_M
   46     0     9     0     0
SMALL
NO_CHARGES


@<TRIPOS>ATOM
      1 N          24.9750   24.8430    9.6665 N.am      2 SEC2        0.0000 
      2 N          23.5320   24.9040    9.8890 N.am      8 SEL2        0.0000 
      3 N          26.4180   24.7820    9.4440 N.am      5 SEP2        0.0000 
      4 O          24.7475   22.7450    8.8400 O.2       1 ALC1        0.0000 
      5 O          23.3080   22.7550    9.1070 O.2       7 ALL1        0.0000 
      6 O          26.1870   22.7350    8.5730 O.2       4 ALP1        0.0000 
      7 CA         17.3175   19.7925   11.5140 C.3       3 GLC5        0.0000 
      8 CA         18.4990   20.2640    9.9840 C.3       9 GLL5        0.0000 
      9 CA         16.1360   19.3210   13.0440 C.3       6 GLP5        0.0000 
     10 CA         20.5680   17.9855    8.8365 C.3       3 GLC5        0.0000 
     11 CA         19.9150   19.7390    9.6890 C.3       9 GLL5        0.0000 
     12 CA         21.2210   16.2320    7.9840 C.3       6 GLP5        0.0000 
     13 CA         20.7465   18.5870    7.5665 C.3       3 GLC5        0.0000 
     14 CA         20.4020   20.5800    8.4760 C.3       9 GLL5        0.0000 
     15 CA         21.0910   16.5940    6.6570 C.3       6 GLP5        0.0000 
     16 CA         18.3505   22.9435    7.0315 C.3       3 GLC5        0.0000 
     17 CA         19.1460   21.1130    7.7570 C.3       9 GLL5        0.0000 
     18 CA         17.5550   24.7740    6.3060 C.3       6 GLP5        0.0000 
     19 CA         19.2620   20.9600    5.8390 C.3       3 GLC5        0.0000 
     20 CA         19.3780   20.8070    3.9210 C.3       6 GLP5        0.0000 
     21 CA         18.7515   19.1705    5.9495 C.3       3 GLC5        0.0000 
     22 CA         18.1880   19.9900    7.4000 C.3       9 GLL5        0.0000 
     23 CA         19.3150   18.3510    4.4990 C.3       6 GLP5        0.0000 
     24 CA         17.1905   23.2640    7.5155 C.3       3 GLC5        0.0000 
     25 CA         16.8260   21.7540    8.7250 C.3       9 GLL5        0.0000 
     26 CA         19.3570   24.2920    8.3370 C.3       3 GLC5        0.0000 
     27 CA         20.6480   22.8580    9.4700 C.3       9 GLL5        0.0000 
     28 CA         18.0660   25.7260    7.2040 C.3       6 GLP5        0.0000 
     29 CA         20.7915   22.2325   11.3900 C.3       3 GLC5        0.0000 
     30 CA         20.9350   21.6070   13.3100 C.3       6 GLP5        0.0000 
     31 CA         19.3700   25.4700    8.7410 C.3       3 GLC5        0.0000 
     32 CA         20.6740   25.2140   10.2780 C.3       9 GLL5        0.0000 
     33 CA         20.7290   27.3080    9.9430 C.3       3 GLC5        0.0000 
     34 CA         20.7840   29.4020    9.6080 C.3       6 GLP5        0.0000 
     35 CA         19.3785   25.9070   11.2655 C.3       3 GLC5        0.0000 
     36 CA         18.0830   26.6000   12.2530 C.3       6 GLP5        0.0000 
     37 CA         21.0790   26.4130   12.1145 C.3       3 GLC5        0.0000 
     38 CA         21.4840   27.6120   13.9510 C.3       6 GLP5        0.0000 
     39 CA         20.6425   22.1827    7.2008 C.3       3 GLC5        0.0000 
     40 CA         21.5110   23.5190    6.2850 C.3       6 GLP5        0.0000 
     41 CA         20.7787   20.4704   10.9461 C.3       3 GLC5        0.0000 
     42 CA         21.7530   20.6500   12.7360 C.3       6 GLP5        0.0000 
     43 CA         21.8455   23.8985   11.5978 C.3       3 GLC5        0.0000 
     44 CA         21.3500   23.9640    9.7810 C.3       9 GLL5        0.0000 
     45 CA         22.6790   23.2080   13.1660 C.3       6 GLP5        0.0000 
     46 CA         21.1738   23.9157    8.1184 C.3       3 GLC5        0.0000 
@<TRIPOS>BOND
@<TRIPOS>SUBSTRUCTURE
     1 ALC1        4 GROUP        1 X    ALC  0     ROOT ALC X 1
     2 SEC2        1 GROUP        1 X    SEC  0     **** SEC X 2
     3 GLC5        7 GROUP        1 X    GLC  0     **** GLC X 6
     4 ALP1        6 GROUP        1 Y    ALP  0     ROOT ALP Y 8
     5 SEP2        3 GROUP        1 Y    SEP  0     **** SEP Y 9
     6 GLP5        9 GROUP        1 Y    GLP  0     **** GLP Y 13
     7 ALL1        5 GROUP        1 Z    ALL  0     ROOT ALL Z 15
     8 SEL2        2 GROUP        1 Z    SEL  0     **** SEL Z 16
     9 GLL5        8 GROUP        1 Z    GLL  0     **** GLL Z 20
@<TRIPOS>SET

