#    Name: 1e2l_TMC_2_ligand
#    Modification time : Mon Mar 24 22:46:01 2014

@<TRIPOS>MOLECULE
1e2l_TMC_2_ligand
   34    36     1     0     0
SMALL
NO_CHARGES


@<TRIPOS>ATOM
      1 O16        16.9660   22.3990   10.0190 O.3       1 TMC500      0.0000 
      2 O18        17.6620   19.2230   10.5150 O.3       1 TMC500      0.0000 
      3 O9         23.1470   20.5700    8.4090 O.2       1 TMC500      0.0000 
      4 O7         23.5320   24.9040    9.8890 O.2       1 TMC500      0.0000 
      5 N8         21.2370   21.7010    9.0010 N.am      1 TMC500      0.0000 
      6 N5         23.3080   22.7550    9.1070 N.am      1 TMC500      0.0000 
      7 C1         17.9600   20.7790    8.6430 C.3       1 TMC500      0.0000 
      8 C10        18.4990   20.2640    9.9840 C.3       1 TMC500      0.0000 
      9 C14        19.9150   19.7390    9.6890 C.3       1 TMC500      0.0000 
     10 C17        20.4020   20.5800    8.4760 C.3       1 TMC500      0.0000 
     11 C13        19.1460   21.1130    7.7570 C.3       1 TMC500      0.0000 
     12 C15        18.1880   19.9900    7.4000 C.3       1 TMC500      0.0000 
     13 C12        16.8260   21.7540    8.7250 C.3       1 TMC500      0.0000 
     14 C11        22.6060   21.6020    8.8240 C.2       1 TMC500      0.0000 
     15 C6         22.8060   23.9460    9.6170 C.2       1 TMC500      0.0000 
     16 C4         21.3500   23.9640    9.7810 C.2       1 TMC500      0.0000 
     17 C2         20.6480   22.8580    9.4700 C.2       1 TMC500      0.0000 
     18 C3         20.6740   25.2140   10.2780 C.3       1 TMC500      0.0000 
     19 H          24.3730   22.7334    8.9105 H         1 TMC500      0.0000 
     20 H          18.5909   21.0993   10.6456 H         1 TMC500      0.0000 
     21 H          19.8701   18.7177    9.4106 H         1 TMC500      0.0000 
     22 H          20.5479   19.9232   10.5185 H         1 TMC500      0.0000 
     23 H          20.9471   19.9553    7.8305 H         1 TMC500      0.0000 
     24 H          19.0086   21.8354    7.2964 H         1 TMC500      0.0000 
     25 H          17.6052   20.3121    6.7211 H         1 TMC500      0.0000 
     26 H          18.6070   19.1682    7.6310 H         1 TMC500      0.0000 
     27 H          16.9124   22.4693    7.9224 H         1 TMC500      0.0000 
     28 H          15.8914   21.2202    8.6555 H         1 TMC500      0.0000 
     29 H          19.5962   22.8615    9.5854 H         1 TMC500      0.0000 
     30 H          21.0027   25.4786   11.1846 H         1 TMC500      0.0000 
     31 H          20.8358   25.9908    9.6694 H         1 TMC500      0.0000 
     32 H          19.6832   25.0977   10.3478 H         1 TMC500      0.0000 
     33 H          16.1415   22.1455   10.5249 H         1 TMC500      0.0000 
     34 H          18.0173   18.3772   10.1171 H         1 TMC500      0.0000 
@<TRIPOS>BOND
     1   13    1 1    
     2   33    1 1    
     3    8    2 1    
     4   34    2 1    
     5   14    3 2    
     6   15    4 2    
     7   10    5 1    
     8   14    5 1    
     9   17    5 1    
    10   14    6 1    
    11   15    6 1    
    12   19    6 1    
    13    8    7 1    
    14   11    7 1    
    15   12    7 1    
    16   13    7 1    
    17    9    8 1    
    18   20    8 1    
    19   10    9 1    
    20   21    9 1    
    21   22    9 1    
    22   11   10 1    
    23   23   10 1    
    24   12   11 1    
    25   24   11 1    
    26   25   12 1    
    27   26   12 1    
    28   27   13 1    
    29   28   13 1    
    30   16   15 1    
    31   17   16 2    
    32   18   16 1    
    33   29   17 1    
    34   30   18 1    
    35   31   18 1    
    36   32   18 1    
@<TRIPOS>SUBSTRUCTURE
     1 TMC500      1 GROUP   
@<TRIPOS>SET

