#    Name: 3hb5_E2B_1_INTS_M
#    Modification time : Tue Mar 25 13:51:54 2014

@<TRIPOS>MOLECULE
3hb5_E2B_1_INTS_M
   78     0     9     0     0
SMALL
NO_CHARGES


@<TRIPOS>ATOM
      1 O           8.4445   -0.6150  -11.0035 O.2       1 ALC1        0.0000 
      2 O          10.1160   -0.2710  -10.6430 O.2       7 ALL1        0.0000 
      3 O           6.7730   -0.9590  -11.3640 O.2       4 ALP1        0.0000 
      4 CA         12.9390    7.9370  -13.0595 C.3       3 GLC5        0.0000 
      5 CA         11.1600    8.9160  -13.1790 C.3       9 GLL5        0.0000 
      6 CA         14.7180    6.9580  -12.9400 C.3       6 GLP5        0.0000 
      7 CA         10.5285   10.8480   -7.2545 C.3       3 GLC5        0.0000 
      8 CA         11.0180   10.1720   -8.9920 C.3       9 GLL5        0.0000 
      9 CA         10.0390   11.5240   -5.5170 C.3       6 GLP5        0.0000 
     10 CA         12.7105   10.5060   -7.6475 C.3       3 GLC5        0.0000 
     11 CA         14.4030   10.8400   -6.3030 C.3       6 GLP5        0.0000 
     12 CA         12.9745   10.6335   -9.0875 C.3       3 GLC5        0.0000 
     13 CA         14.9310   11.0950   -9.1830 C.3       6 GLP5        0.0000 
     14 CA         12.2255   -0.4435  -11.5190 C.3       3 GLC5        0.0000 
     15 CA         12.2540    1.5200  -10.4910 C.3       9 GLL5        0.0000 
     16 CA         12.1970   -2.4070  -12.5470 C.3       6 GLP5        0.0000 
     17 CA          9.6675   11.6935   -8.2055 C.3       3 GLC5        0.0000 
     18 CA         10.2400   10.9450  -10.0540 C.3       9 GLL5        0.0000 
     19 CA          9.0950   12.4420   -6.3570 C.3       6 GLP5        0.0000 
     20 CA         13.7495    6.4330  -10.6570 C.3       3 GLC5        0.0000 
     21 CA         12.0410    6.5900   -9.3640 C.3       9 GLL5        0.0000 
     22 CA         15.4580    6.2760  -11.9500 C.3       6 GLP5        0.0000 
     23 CA         13.1580    9.3460   -7.4135 C.3       3 GLC5        0.0000 
     24 CA         11.9130    7.8520   -8.5240 C.3       9 GLL5        0.0000 
     25 CA         14.0430    8.4055   -8.8105 C.3       3 GLC5        0.0000 
     26 CA         16.1730    8.9590   -9.0970 C.3       6 GLP5        0.0000 
     27 CA          8.2430    8.0940   -7.5865 C.3       3 GLC5        0.0000 
     28 CA          9.4860    8.2010   -8.9710 C.3       9 GLL5        0.0000 
     29 CA          7.0000    7.9870   -6.2020 C.3       6 GLP5        0.0000 
     30 CA         14.0740    2.6190  -12.1470 C.3       3 GLC5        0.0000 
     31 CA         13.3060    2.3420  -10.1820 C.3       9 GLL5        0.0000 
     32 CA         14.8420    2.8960  -14.1120 C.3       6 GLP5        0.0000 
     33 CA         10.1635    4.5305   -7.8045 C.3       3 GLC5        0.0000 
     34 CA         11.5390    5.3330   -8.6800 C.3       9 GLL5        0.0000 
     35 CA          8.7880    3.7280   -6.9290 C.3       6 GLP5        0.0000 
     36 CA          8.7200    8.3800  -15.1645 C.3       3 GLC5        0.0000 
     37 CA         10.1010    9.4300  -14.1190 C.3       9 GLL5        0.0000 
     38 CA          7.3390    7.3300  -16.2100 C.3       6 GLP5        0.0000 
     39 CA         11.1460    8.9665  -15.9205 C.3       3 GLC5        0.0000 
     40 CA         12.1910    8.5030  -17.7220 C.3       6 GLP5        0.0000 
     41 CA          8.1340   15.2165  -12.1985 C.3       3 GLC5        0.0000 
     42 CA          9.0560   13.5150  -13.2430 C.3       9 GLL5        0.0000 
     43 CA          7.2120   16.9180  -11.1540 C.3       6 GLP5        0.0000 
     44 O           7.9115   15.0425  -15.1265 O.2       1 ALC1        0.0000 
     45 O           8.1570   13.7760  -15.3260 O.2       7 ALL1        0.0000 
     46 O           7.6660   16.3090  -14.9270 O.2       4 ALP1        0.0000 
     47 N           8.2505    2.5085  -11.2765 N.am      2 SEC2        0.0000 
     48 N           8.6800    1.3630  -10.7620 N.am      8 SEL2        0.0000 
     49 N           7.8210    3.6540  -11.7910 N.am      5 SEP2        0.0000 
     50 N          10.7800    7.1835   -6.1750 N.am      2 SEC2        0.0000 
     51 N          11.4670    7.5730   -7.2840 N.am      8 SEL2        0.0000 
     52 N          10.0930    6.7940   -5.0660 N.am      5 SEP2        0.0000 
     53 CA         11.2135   12.7040  -10.5515 C.3       3 GLC5        0.0000 
     54 CA         10.7380   10.6370  -11.4720 C.3       9 GLL5        0.0000 
     55 CA         11.9380   14.6170  -10.3400 C.3       6 GLP5        0.0000 
     56 CA         13.0555    7.3090  -11.7927 C.3       3 GLC5        0.0000 
     57 CA         11.4510    8.4020  -10.6480 C.3       9 GLL5        0.0000 
     58 CA         12.0688   10.6480  -13.8545 C.3       3 GLC5        0.0000 
     59 CA         13.5070   12.1230  -14.0600 C.3       6 GLP5        0.0000 
     60 CA         14.6160    1.0140  -10.2568 C.3       3 GLC5        0.0000 
     61 CA         16.4520    0.0970  -10.1770 C.3       6 GLP5        0.0000 
     62 CA          8.8096    9.5405  -10.8290 C.3       3 GLC5        0.0000 
     63 CA         10.7270    9.1770  -11.7560 C.3       9 GLL5        0.0000 
     64 CA          7.1330    8.6550  -10.8240 C.3       6 GLP5        0.0000 
     65 CA          8.7359    8.5147  -10.1438 C.3       3 GLC5        0.0000 
     66 CA          7.7397   11.7272  -12.5282 C.3       3 GLC5        0.0000 
     67 CA          9.6810   12.7280  -12.3140 C.3       9 GLL5        0.0000 
     68 CA          6.1110   10.3330  -12.2780 C.3       6 GLP5        0.0000 
     69 CA         11.6883   11.9800  -13.3326 C.3       3 GLC5        0.0000 
     70 CA          8.0506   10.3096  -12.9607 C.3       3 GLC5        0.0000 
     71 CA          9.7360   10.8620  -13.7780 C.3       9 GLL5        0.0000 
     72 CA          7.5217   11.3280  -13.4360 C.3       3 GLC5        0.0000 
     73 CA          9.1010   11.6630  -14.7300 C.3       9 GLL5        0.0000 
     74 CA          6.8715   13.2295  -13.8948 C.3       3 GLC5        0.0000 
     75 CA          8.7640   12.9830  -14.4580 C.3       9 GLL5        0.0000 
     76 CA          4.8330   13.2100  -13.9390 C.3       6 GLP5        0.0000 
     77 CA         10.7006   12.9935  -15.0282 C.3       3 GLC5        0.0000 
     78 CA         12.4070   13.0680  -16.1380 C.3       6 GLP5        0.0000 
@<TRIPOS>BOND
@<TRIPOS>SUBSTRUCTURE
     1 ALC1        1 GROUP        1 X    ALC  0     ROOT ALC X 1
     2 SEC2       47 GROUP        1 X    SEC  0     **** SEC X 2
     3 GLC5        4 GROUP        1 X    GLC  0     **** GLC X 6
     4 ALP1        3 GROUP        1 Y    ALP  0     ROOT ALP Y 8
     5 SEP2       49 GROUP        1 Y    SEP  0     **** SEP Y 9
     6 GLP5        6 GROUP        1 Y    GLP  0     **** GLP Y 13
     7 ALL1        2 GROUP        1 Z    ALL  0     ROOT ALL Z 15
     8 SEL2       48 GROUP        1 Z    SEL  0     **** SEL Z 16
     9 GLL5        5 GROUP        1 Z    GLL  0     **** GLL Z 20
@<TRIPOS>SET

