#    Name: 3hb5_E2B_1_ligand
#    Modification time : Tue Mar 25 13:51:54 2014

@<TRIPOS>MOLECULE
3hb5_E2B_1_ligand
   61    65     1     0     0
SMALL
NO_CHARGES


@<TRIPOS>ATOM
      1 N30        10.1160   -0.2710  -10.6430 N.am      1 E2B700      0.0000 
      2 C9         10.7270    9.1770  -11.7560 C.3       1 E2B700      0.0000 
      3 C10        10.7380   10.6370  -11.4720 C.3       1 E2B700      0.0000 
      4 C15        11.4510    8.4020  -10.6480 C.3       1 E2B700      0.0000 
      5 C8         11.1600    8.9160  -13.1790 C.3       1 E2B700      0.0000 
      6 C14        10.9320    8.6940   -9.2640 C.3       1 E2B700      0.0000 
      7 C11        10.0230   11.4230  -12.5580 C.ar      1 E2B700      0.0000 
      8 C13        11.0180   10.1720   -8.9920 C.3       1 E2B700      0.0000 
      9 C16        11.3350    6.9180  -10.6430 C.3       1 E2B700      0.0000 
     10 C28         9.8060    0.9700  -10.6060 C.2       1 E2B700      0.0000 
     11 C25        12.2540    1.5200  -10.4910 C.ar      1 E2B700      0.0000 
     12 C6          9.7360   10.8620  -13.7780 C.ar      1 E2B700      0.0000 
     13 C12        10.2400   10.9450  -10.0540 C.3       1 E2B700      0.0000 
     14 C17        12.0410    6.5900   -9.3640 C.3       1 E2B700      0.0000 
     15 C18        11.9130    7.8520   -8.5240 C.3       1 E2B700      0.0000 
     16 C20         9.4860    8.2010   -8.9710 C.3       1 E2B700      0.0000 
     17 C24        10.9600    1.9060  -10.2540 C.ar      1 E2B700      0.0000 
     18 C1          9.6810   12.7280  -12.3140 C.ar      1 E2B700      0.0000 
     19 C26        13.3060    2.3420  -10.1820 C.ar      1 E2B700      0.0000 
     20 C21        11.5390    5.3330   -8.6800 C.3       1 E2B700      0.0000 
     21 C23        10.7560    3.1330   -9.6680 C.ar      1 E2B700      0.0000 
     22 C27        13.0870    3.5600   -9.6050 C.ar      1 E2B700      0.0000 
     23 C7         10.1010    9.4300  -14.1190 C.3       1 E2B700      0.0000 
     24 C3          8.7640   12.9830  -14.4580 C.ar      1 E2B700      0.0000 
     25 C22        11.8110    3.9750   -9.3470 C.ar      1 E2B700      0.0000 
     26 C5          9.1010   11.6630  -14.7300 C.ar      1 E2B700      0.0000 
     27 C2          9.0560   13.5150  -13.2430 C.ar      1 E2B700      0.0000 
     28 O4          8.1570   13.7760  -15.3260 O.3       1 E2B700      0.0000 
     29 O29         8.6800    1.3630  -10.7620 O.2       1 E2B700      0.0000 
     30 O19        11.4670    7.5730   -7.2840 O.3       1 E2B700      0.0000 
     31 H           9.3871   -0.8986  -10.9166 H         1 E2B700      0.0000 
     32 H          11.0580   -0.4968  -10.3949 H         1 E2B700      0.0000 
     33 H           9.6361    8.8656  -11.6904 H         1 E2B700      0.0000 
     34 H          11.8157   10.9647  -11.5005 H         1 E2B700      0.0000 
     35 H          12.5117    8.6546  -10.6360 H         1 E2B700      0.0000 
     36 H          11.2936    7.8486  -13.3275 H         1 E2B700      0.0000 
     37 H          12.0988    9.4265  -13.3719 H         1 E2B700      0.0000 
     38 H          12.0578   10.4917   -9.0116 H         1 E2B700      0.0000 
     39 H          10.5970   10.3930   -8.0134 H         1 E2B700      0.0000 
     40 H          11.8555    6.5029  -11.4632 H         1 E2B700      0.0000 
     41 H          10.3214    6.6257  -10.5849 H         1 E2B700      0.0000 
     42 H          12.4405    0.5852  -10.9135 H         1 E2B700      0.0000 
     43 H           9.1800   10.6850   -9.9853 H         1 E2B700      0.0000 
     44 H          10.3420   12.0175   -9.8666 H         1 E2B700      0.0000 
     45 H          13.1088    6.4762   -9.5997 H         1 E2B700      0.0000 
     46 H          12.8674    8.3505   -8.5577 H         1 E2B700      0.0000 
     47 H           9.9093   13.1414  -11.3716 H         1 E2B700      0.0000 
     48 H          14.2766    2.0342  -10.3892 H         1 E2B700      0.0000 
     49 H          10.4301    5.4256   -8.5245 H         1 E2B700      0.0000 
     50 H          11.9594    5.2969   -7.6387 H         1 E2B700      0.0000 
     51 H           9.7821    3.4447   -9.4566 H         1 E2B700      0.0000 
     52 H          13.8890    4.1705   -9.3624 H         1 E2B700      0.0000 
     53 H           9.2099    8.8047  -14.0443 H         1 E2B700      0.0000 
     54 H          10.4700    9.3881  -15.1450 H         1 E2B700      0.0000 
     55 H           8.8775   11.2602  -15.6598 H         1 E2B700      0.0000 
     56 H           8.8142   14.4896  -13.0207 H         1 E2B700      0.0000 
     57 H           9.4046    7.2092   -9.0697 H         1 E2B700      0.0000 
     58 H           9.1977    8.4276   -8.0406 H         1 E2B700      0.0000 
     59 H           8.8200    8.6131   -9.5928 H         1 E2B700      0.0000 
     60 H           8.1240   14.6705  -14.8801 H         1 E2B700      0.0000 
     61 H          10.7092    8.2077   -7.1327 H         1 E2B700      0.0000 
@<TRIPOS>BOND
     1   10    1 am   
     2   31    1 1    
     3   32    1 1    
     4    3    2 1    
     5    4    2 1    
     6    5    2 1    
     7   33    2 1    
     8    7    3 1    
     9   13    3 1    
    10   34    3 1    
    11    6    4 1    
    12    9    4 1    
    13   35    4 1    
    14   23    5 1    
    15   36    5 1    
    16   37    5 1    
    17    8    6 1    
    18   15    6 1    
    19   16    6 1    
    20   12    7 ar   
    21   18    7 ar   
    22   13    8 1    
    23   38    8 1    
    24   39    8 1    
    25   14    9 1    
    26   40    9 1    
    27   41    9 1    
    28   17   10 1    
    29   29   10 2    
    30   17   11 ar   
    31   19   11 ar   
    32   42   11 1    
    33   23   12 1    
    34   26   12 ar   
    35   43   13 1    
    36   44   13 1    
    37   15   14 1    
    38   20   14 1    
    39   45   14 1    
    40   30   15 1    
    41   46   15 1    
    42   57   16 1    
    43   58   16 1    
    44   59   16 1    
    45   21   17 ar   
    46   27   18 ar   
    47   47   18 1    
    48   22   19 ar   
    49   48   19 1    
    50   25   20 1    
    51   49   20 1    
    52   50   20 1    
    53   25   21 ar   
    54   51   21 1    
    55   25   22 ar   
    56   52   22 1    
    57   53   23 1    
    58   54   23 1    
    59   26   24 ar   
    60   27   24 ar   
    61   28   24 1    
    62   55   26 1    
    63   56   27 1    
    64   60   28 1    
    65   61   30 1    
@<TRIPOS>SUBSTRUCTURE
     1 E2B700      1 GROUP   
@<TRIPOS>SET

