#    Name: 3EEI_1_CAVITY_N1_ALL.mol2
#    Modification time : Mon Mar 10 13:10:42 2014

@<TRIPOS>MOLECULE
3EEI_1_CAVITY_N1_ALL.mol2
   60     0     4     0     0
SMALL
NO_CHARGES


@<TRIPOS>ATOM
      1 NZ        -37.4219   15.0747  -16.8605 N.2       2 LYS4        0.0000 
      2 CZ        -36.4786   12.6562  -16.7548 C.ar      3 PHE5        0.0000 
      3 NZ        -36.9480   13.3491  -17.9997 N.2       2 LYS4        0.0000 
      4 CZ        -38.1641   13.8370  -17.2695 C.ar      3 PHE5        0.0000 
      5 CZ        -39.3801   14.3249  -16.5394 C.ar      3 PHE5        0.0000 
      6 NZ        -37.4173   14.0420  -19.2445 N.2       2 LYS4        0.0000 
      7 NZ        -38.6334   14.5299  -18.5144 N.2       2 LYS4        0.0000 
      8 CZ        -32.1644    7.8761  -15.6198 C.ar      3 PHE5        0.0000 
      9 CZ        -32.6338    8.5690  -16.8646 C.ar      3 PHE5        0.0000 
     10 CZ        -33.8499    9.0569  -16.1345 C.ar      3 PHE5        0.0000 
     11 CZ        -35.5353   10.2377  -16.6492 C.ar      3 PHE5        0.0000 
     12 CZ        -36.0047   10.9306  -17.8940 C.ar      3 PHE5        0.0000 
     13 CZ        -37.2208   11.4185  -17.1639 C.ar      3 PHE5        0.0000 
     14 CZ        -38.4369   11.9064  -16.4338 C.ar      3 PHE5        0.0000 
     15 CA        -37.6901   12.1114  -18.4087 C.3       4 GLY6        0.0000 
     16 CZ        -38.9062   12.5993  -17.6786 C.ar      3 PHE5        0.0000 
     17 CA        -40.1223   13.0873  -16.9485 C.3       4 GLY6        0.0000 
     18 CA        -38.1595   12.8043  -19.6536 C.3       4 GLY6        0.0000 
     19 OG        -39.3756   13.2922  -18.9234 O.2       1 SER1        0.0000 
     20 OG        -40.5917   13.7802  -18.1933 O.2       1 SER1        0.0000 
     21 CA        -38.6289   13.4972  -20.8984 C.3       4 GLY6        0.0000 
     22 CA        -31.6905    6.1505  -16.7590 C.3       4 GLY6        0.0000 
     23 CZ        -32.9066    6.6384  -16.0289 C.ar      3 PHE5        0.0000 
     24 OG        -32.1599    6.8434  -18.0038 O.2       1 SER1        0.0000 
     25 CZ        -33.3760    7.3313  -17.2737 C.ar      3 PHE5        0.0000 
     26 CZ        -34.5921    7.8192  -16.5436 C.ar      3 PHE5        0.0000 
     27 CZ        -35.8081    8.3071  -15.8135 C.ar      3 PHE5        0.0000 
     28 CZ        -33.8453    8.0242  -18.5185 C.ar      3 PHE5        0.0000 
     29 CZ        -35.0614    8.5121  -17.7884 C.ar      3 PHE5        0.0000 
     30 CZ        -36.2775    9.0000  -17.0583 C.ar      3 PHE5        0.0000 
     31 CZ        -37.4936    9.4879  -16.3282 C.ar      3 PHE5        0.0000 
     32 CA        -35.5308    9.2050  -19.0332 C.3       4 GLY6        0.0000 
     33 CA        -36.7469    9.6929  -18.3031 C.3       4 GLY6        0.0000 
     34 CA        -37.9630   10.1809  -17.5730 C.3       4 GLY6        0.0000 
     35 CZ        -39.1790   10.6688  -16.8429 C.ar      3 PHE5        0.0000 
     36 CA        -37.2162   10.3859  -19.5479 C.3       4 GLY6        0.0000 
     37 CA        -38.4323   10.8738  -18.8178 C.3       4 GLY6        0.0000 
     38 OG        -39.6484   11.3617  -18.0877 O.2       1 SER1        0.0000 
     39 CA        -38.9017   11.5667  -20.0627 C.3       4 GLY6        0.0000 
     40 OG        -40.1178   12.0546  -19.3325 O.2       1 SER1        0.0000 
     41 CA        -39.3710   12.2596  -21.3075 C.3       4 GLY6        0.0000 
     42 OG        -40.5871   12.7475  -20.5774 O.2       1 SER1        0.0000 
     43 CA        -32.4327    4.9128  -17.1681 C.3       4 GLY6        0.0000 
     44 CA        -33.6488    5.4007  -16.4380 C.3       4 GLY6        0.0000 
     45 NZ        -32.9021    5.6057  -18.4129 N.2       2 LYS4        0.0000 
     46 CA        -34.1181    6.0936  -17.6828 C.3       4 GLY6        0.0000 
     47 CA        -35.3342    6.5816  -16.9527 C.3       4 GLY6        0.0000 
     48 CA        -36.5503    7.0695  -16.2226 C.3       4 GLY6        0.0000 
     49 NZ        -33.3714    6.2986  -19.6577 N.2       2 LYS4        0.0000 
     50 CA        -34.5875    6.7865  -18.9276 C.3       4 GLY6        0.0000 
     51 CA        -35.8036    7.2745  -18.1975 C.3       4 GLY6        0.0000 
     52 CA        -37.0197    7.7624  -17.4674 C.3       4 GLY6        0.0000 
     53 CA        -38.2358    8.2503  -16.7373 C.3       4 GLY6        0.0000 
     54 CA        -38.7051    8.9432  -17.9821 C.3       4 GLY6        0.0000 
     55 CA        -39.9212    9.4311  -17.2520 C.3       4 GLY6        0.0000 
     56 CA        -40.3906   10.1240  -18.4968 C.3       4 GLY6        0.0000 
     57 CA        -39.6439   10.3290  -20.4717 C.3       4 GLY6        0.0000 
     58 OG        -40.8599   10.8169  -19.7416 O.2       1 SER1        0.0000 
     59 OG        -41.3293   11.5098  -20.9864 O.2       1 SER1        0.0000 
     60 NZ        -34.8603    4.8560  -18.0919 N.2       2 LYS4        0.0000 
@<TRIPOS>BOND
@<TRIPOS>SUBSTRUCTURE
     1 SER1       19 GROUP   
     2 LYS4        1 GROUP   
     3 PHE5        2 GROUP   
     4 GLY6       15 GROUP   
@<TRIPOS>SET

