#    Name: 3eei_MTM_1_INTS_M
#    Modification time : Tue Mar 25 01:36:06 2014

@<TRIPOS>MOLECULE
3eei_MTM_1_INTS_M
   74     0    12     0     0
SMALL
NO_CHARGES


@<TRIPOS>ATOM
      1 CA        -35.8050    9.7470  -19.4345 C.3       4 GLC5        0.0000 
      2 CA        -36.6710    9.6960  -17.4290 C.3      12 GLL5        0.0000 
      3 CA        -34.9390    9.7980  -21.4400 C.3       8 GLP5        0.0000 
      4 CA        -35.2360   10.9925  -17.6450 C.3       4 GLC5        0.0000 
      5 CA        -33.8010   12.2890  -17.8610 C.3       8 GLP5        0.0000 
      6 CA        -38.1540    8.2095  -15.5090 C.3       4 GLC5        0.0000 
      7 CA        -36.4030    8.1030  -16.6790 C.3      12 GLL5        0.0000 
      8 CA        -39.9050    8.3160  -14.3390 C.3       8 GLP5        0.0000 
      9 CA        -34.5875    8.6125  -19.8760 C.3       4 GLC5        0.0000 
     10 CA        -34.2360    7.4270  -18.3120 C.3      12 GLL5        0.0000 
     11 CA        -34.2215    4.1510  -16.6175 C.3       4 GLC5        0.0000 
     12 CA        -33.2380    5.2700  -17.7130 C.3      12 GLL5        0.0000 
     13 CA        -35.2050    3.0320  -15.5220 C.3       8 GLP5        0.0000 
     14 N         -32.8435    2.9045  -17.6150 N.am      2 SEC2        0.0000 
     15 N         -32.7900    4.1040  -18.4270 N.am     10 SEL2        0.0000 
     16 N         -32.8970    1.7050  -16.8030 N.am      6 SEP2        0.0000 
     17 N         -31.4805    4.0820  -19.5715 N.am      2 SEC2        0.0000 
     18 N         -30.1710    4.0600  -20.7160 N.am      6 SEP2        0.0000 
     19 O         -33.0710    3.4635  -19.6520 O.2       1 ALC1        0.0000 
     20 O         -32.7900    4.1040  -18.4270 O.2       9 ALL1        0.0000 
     21 O         -33.3520    2.8230  -20.8770 O.2       5 ALP1        0.0000 
     22 O         -34.1070    3.6290  -19.3125 O.2       1 ALC1        0.0000 
     23 O         -35.4240    3.1540  -20.1980 O.2       5 ALP1        0.0000 
     24 CA        -36.5350    5.4595  -18.6315 C.3       4 GLC5        0.0000 
     25 CA        -34.4680    5.8960  -18.3980 C.3      12 GLL5        0.0000 
     26 CA        -38.6020    5.0230  -18.8650 C.3       8 GLP5        0.0000 
     27 CA        -35.4335    5.1570  -16.8965 C.3       4 GLC5        0.0000 
     28 CA        -36.3990    4.4180  -15.3950 C.3       8 GLP5        0.0000 
     29 N         -33.4120    5.8850  -20.3240 N.am      2 SEC2        0.0000 
     30 N         -34.5980    5.4820  -19.7730 N.am     10 SEL2        0.0000 
     31 N         -32.2260    6.2880  -20.8750 N.am      6 SEP2        0.0000 
     32 O         -35.0110    4.3180  -19.9855 O.2       1 ALC1        0.0000 
     33 O         -34.5980    5.4820  -19.7730 O.2       9 ALL1        0.0000 
     34 CA        -32.0170    8.6120  -17.8145 C.3       4 GLC5        0.0000 
     35 CA        -32.1720    6.3710  -17.7380 C.3      12 GLL5        0.0000 
     36 CA        -31.8620   10.8530  -17.8910 C.3       8 GLP5        0.0000 
     37 CA        -29.6595    8.3555  -17.8905 C.3       4 GLC5        0.0000 
     38 CA        -30.6210    7.7850  -16.0640 C.3      12 GLL5        0.0000 
     39 CA        -28.6980    8.9260  -19.7170 C.3       8 GLP5        0.0000 
     40 O         -29.7910    9.0185  -14.2455 O.2       1 ALC1        0.0000 
     41 O         -30.4590    7.9180  -14.6930 O.2       9 ALL1        0.0000 
     42 O         -29.1230   10.1190  -13.7980 O.2       5 ALP1        0.0000 
     43 CA        -29.4425    6.4920  -15.2985 C.3       4 GLC5        0.0000 
     44 CA        -31.2280    6.9760  -14.0430 C.3      12 GLL5        0.0000 
     45 CA        -27.6570    6.0080  -16.5540 C.3       8 GLP5        0.0000 
     46 OD1       -30.0060    8.7315  -12.7280 O.co2     3 ASC3        0.0000 
     47 OD1       -30.8890    7.3440  -11.6580 O.co2    11 ASL3        0.0000 
     48 OD1       -29.1230   10.1190  -13.7980 O.co2     7 ASP3        0.0000 
     49 OD1       -29.8835    8.3605  -11.6975 O.co2     3 ASC3        0.0000 
     50 OD1       -28.8780    9.3770  -11.7370 O.co2     7 ASP3        0.0000 
     51 O         -31.5570    7.4550  -10.3180 O.2       1 ALC1        0.0000 
     52 O         -30.8890    7.3440  -11.6580 O.2       9 ALL1        0.0000 
     53 O         -32.2250    7.5660   -8.9780 O.2       5 ALP1        0.0000 
     54 O         -29.8835    8.3605  -11.6975 O.2       1 ALC1        0.0000 
     55 O         -28.8780    9.3770  -11.7370 O.2       5 ALP1        0.0000 
     56 CA        -31.4305    4.3300  -15.3000 C.3       4 GLC5        0.0000 
     57 CA        -31.9390    6.1840  -15.0510 C.3      12 GLL5        0.0000 
     58 CA        -30.9220    2.4760  -15.5490 C.3       8 GLP5        0.0000 
     59 CA        -37.5405    8.4142  -18.7530 C.3       4 GLC5        0.0000 
     60 CA        -38.5440    7.9290  -20.4520 C.3       8 GLP5        0.0000 
     61 CA        -36.4910   10.1513  -15.5720 C.3       4 GLC5        0.0000 
     62 CA        -36.4450   11.4030  -14.0900 C.3       8 GLP5        0.0000 
     63 CA        -35.0487    8.1290  -15.0532 C.3       4 GLC5        0.0000 
     64 CA        -34.5570    8.3170  -13.3200 C.3       8 GLP5        0.0000 
     65 CA        -35.9697    6.1795  -16.0907 C.3       4 GLC5        0.0000 
     66 CA        -34.6780    7.7790  -16.8940 C.3      12 GLL5        0.0000 
     67 CA        -33.7560    9.4440  -18.0400 C.3       4 GLC5        0.0000 
     68 CA        -33.0550   11.2850  -18.4770 C.3       8 GLP5        0.0000 
     69 CA        -29.3575    6.5953  -16.3822 C.3       4 GLC5        0.0000 
     70 CA        -31.4950    6.5800  -16.3570 C.3      12 GLL5        0.0000 
     71 CA        -31.1845    4.5656  -16.9461 C.3       4 GLC5        0.0000 
     72 CA        -30.2690    2.9310  -16.8510 C.3       8 GLP5        0.0000 
     73 CA        -29.2578    6.7170  -13.0892 C.3       4 GLC5        0.0000 
     74 CA        -27.1520    6.6210  -12.8350 C.3       8 GLP5        0.0000 
@<TRIPOS>BOND
@<TRIPOS>SUBSTRUCTURE
     1 ALC1       19 GROUP        1 X    ALC  0     ROOT ALC X 1
     2 SEC2       14 GROUP        1 X    SEC  0     **** SEC X 2
     3 ASC3       46 GROUP        1 X    ASC  0     **** ASC X 3
     4 GLC5        1 GROUP        1 X    GLC  0     **** GLC X 6
     5 ALP1       21 GROUP        1 Y    ALP  0     ROOT ALP Y 8
     6 SEP2       16 GROUP        1 Y    SEP  0     **** SEP Y 9
     7 ASP3       48 GROUP        1 Y    ASP  0     **** ASP Y 10
     8 GLP5        3 GROUP        1 Y    GLP  0     **** GLP Y 13
     9 ALL1       20 GROUP        1 Z    ALL  0     ROOT ALL Z 15
    10 SEL2       15 GROUP        1 Z    SEL  0     **** SEL Z 16
    11 ASL3       47 GROUP        1 Z    ASL  0     **** ASL Z 17
    12 GLL5        2 GROUP        1 Z    GLL  0     **** GLL Z 20
@<TRIPOS>SET

