#    Name: 3eei_MTM_1_ligand
#    Modification time : Tue Mar 25 01:36:06 2014

@<TRIPOS>MOLECULE
3eei_MTM_1_ligand
   39    41     1     0     0
SMALL
NO_CHARGES


@<TRIPOS>ATOM
      1 CS        -36.6710    9.6960  -17.4290 C.3       1 MTM234      0.0000 
      2 S5'       -36.4030    8.1030  -16.6790 S.3       1 MTM234      0.0000 
      3 C5'       -34.6780    7.7790  -16.8940 C.3       1 MTM234      0.0000 
      4 C4'       -34.2360    7.4270  -18.3120 C.3       1 MTM234      0.0000 
      5 N4'       -32.7850    7.5470  -18.3760 N.4       1 MTM234      0.0000 
      6 C2'       -33.2380    5.2700  -17.7130 C.3       1 MTM234      0.0000 
      7 O2'       -32.7900    4.1040  -18.4270 O.3       1 MTM234      0.0000 
      8 C3'       -34.4680    5.8960  -18.3980 C.3       1 MTM234      0.0000 
      9 O3'       -34.5980    5.4820  -19.7730 O.3       1 MTM234      0.0000 
     10 C1'       -32.1720    6.3710  -17.7380 C.3       1 MTM234      0.0000 
     11 C9        -31.4950    6.5800  -16.3570 C.2       1 MTM234      0.0000 
     12 C8        -30.6210    7.7850  -16.0640 C.2       1 MTM234      0.0000 
     13 N7        -30.4590    7.9180  -14.6930 N.pl3     1 MTM234      0.0000 
     14 C5        -31.2280    6.9760  -14.0430 C.2       1 MTM234      0.0000 
     15 C6        -31.4990    6.6500  -12.6440 C.3       1 MTM234      0.0000 
     16 N6        -30.8890    7.3440  -11.6580 N.4       1 MTM234      0.0000 
     17 N1        -32.3320    5.6050  -12.3350 N.pl3     1 MTM234      0.0000 
     18 C2        -32.9080    4.9150  -13.3450 C.2       1 MTM234      0.0000 
     19 N3        -32.7230    5.1360  -14.6490 N.2       1 MTM234      0.0000 
     20 C4        -31.9390    6.1840  -15.0510 C.2       1 MTM234      0.0000 
     21 H         -34.4863    6.9731  -16.1845 H         1 MTM234      0.0000 
     22 H         -34.2061    8.6897  -16.5233 H         1 MTM234      0.0000 
     23 H         -34.7456    7.9064  -19.0163 H         1 MTM234      0.0000 
     24 H         -33.4900    5.0718  -16.7003 H         1 MTM234      0.0000 
     25 H         -35.3277    5.6703  -17.8088 H         1 MTM234      0.0000 
     26 H         -31.3771    5.9828  -18.4338 H         1 MTM234      0.0000 
     27 H         -30.2775    8.3139  -16.7547 H         1 MTM234      0.0000 
     28 H         -29.8961    8.5684  -14.2660 H         1 MTM234      0.0000 
     29 H         -32.6035    7.5630  -12.6477 H         1 MTM234      0.0000 
     30 H         -32.5090    5.3585  -11.3522 H         1 MTM234      0.0000 
     31 H         -33.5794    4.1113  -13.0644 H         1 MTM234      0.0000 
     32 H         -36.1216   10.4089  -16.9931 H         1 MTM234      0.0000 
     33 H         -36.4319    9.6943  -18.4000 H         1 MTM234      0.0000 
     34 H         -37.6271    9.9814  -17.3631 H         1 MTM234      0.0000 
     35 H         -31.4552    7.3959  -10.8353 H         1 MTM234      0.0000 
     36 H         -30.0214    6.9248  -11.3908 H         1 MTM234      0.0000 
     37 H         -30.6875    8.2836  -11.9349 H         1 MTM234      0.0000 
     38 H         -33.2889    4.1237  -19.2934 H         1 MTM234      0.0000 
     39 H         -35.3640    4.8393  -19.7783 H         1 MTM234      0.0000 
@<TRIPOS>BOND
     1    2    1 1    
     2   32    1 1    
     3   33    1 1    
     4   34    1 1    
     5    3    2 1    
     6    4    3 1    
     7   21    3 1    
     8   22    3 1    
     9    5    4 1    
    10    8    4 1    
    11   23    4 1    
    12   10    5 1    
    13    7    6 1    
    14    8    6 1    
    15   10    6 1    
    16   24    6 1    
    17   38    7 1    
    18    9    8 1    
    19   25    8 1    
    20   39    9 1    
    21   11   10 1    
    22   26   10 1    
    23   12   11 2    
    24   20   11 1    
    25   13   12 1    
    26   27   12 1    
    27   14   13 1    
    28   28   13 1    
    29   15   14 1    
    30   20   14 2    
    31   16   15 1    
    32   17   15 1    
    33   29   15 1    
    34   35   16 1    
    35   36   16 1    
    36   37   16 1    
    37   18   17 1    
    38   30   17 1    
    39   19   18 2    
    40   31   18 1    
    41   20   19 1    
@<TRIPOS>SUBSTRUCTURE
     1 MTM234      1 GROUP   
@<TRIPOS>SET

