#    Name: 2JIB_1_CAVITY_N1_ALL.mol2
#    Modification time : Mon Mar 10 22:35:07 2014

@<TRIPOS>MOLECULE
2JIB_1_CAVITY_N1_ALL.mol2
   47     0     6     0     0
SMALL
NO_CHARGES


@<TRIPOS>ATOM
      1 CA         83.3232   -4.8283    2.0100 C.3       5 GLY6        0.0000 
      2 CA         81.8715   -3.4030    2.6111 C.3       5 GLY6        0.0000 
      3 CA         82.6956   -3.3187    0.6582 C.3       5 GLY6        0.0000 
      4 CA         82.1291   -5.3367    0.3320 C.3       5 GLY6        0.0000 
      5 CA         82.8244   -4.2855   -0.4813 C.3       5 GLY6        0.0000 
      6 CA         83.6485   -4.2011   -2.4342 C.3       5 GLY6        0.0000 
      7 OG         80.5486   -2.9447    2.0726 O.2       1 SER1        0.0000 
      8 CA         81.2439   -1.8934    1.2593 C.3       5 GLY6        0.0000 
      9 CA         81.9392   -0.8422    0.4460 C.3       5 GLY6        0.0000 
     10 CA         80.6774   -3.9115    0.9331 C.3       5 GLY6        0.0000 
     11 CA         81.3727   -2.8603    0.1198 C.3       5 GLY6        0.0000 
     12 N          82.0680   -1.8091   -0.6935 N.2       2 ALA2        0.0000 
     13 CA         80.8063   -4.8784   -0.2065 C.3       5 GLY6        0.0000 
     14 CA         81.5015   -3.8272   -1.0198 C.3       5 GLY6        0.0000 
     15 CA         82.1968   -2.7759   -1.8331 C.3       5 GLY6        0.0000 
     16 CA         81.6304   -4.7940   -2.1594 C.3       5 GLY6        0.0000 
     17 CA         82.3257   -3.7428   -2.9727 C.3       5 GLY6        0.0000 
     18 O          83.0210   -2.6915   -3.7860 O.2       2 ALA2        0.0000 
     19 OG         79.2257   -2.4863    1.5342 O.2       1 SER1        0.0000 
     20 OG         79.9210   -1.4351    0.7209 O.2       1 SER1        0.0000 
     21 N          80.6163   -0.3838   -0.0924 N.2       2 ALA2        0.0000 
     22 CA         80.0498   -2.4019   -0.4187 C.3       5 GLY6        0.0000 
     23 N          80.7451   -1.3507   -1.2320 N.2       2 ALA2        0.0000 
     24 CA         80.1787   -3.3688   -1.5582 C.3       5 GLY6        0.0000 
     25 N          80.8740   -2.3176   -2.3716 N.2       2 ALA2        0.0000 
     26 N          81.5693   -1.2663   -3.1849 N.2       2 ALA2        0.0000 
     27 CA         80.3075   -4.3356   -2.6978 C.3       5 GLY6        0.0000 
     28 DU         81.0028   -3.2844   -3.5111 H         6 CUB7        0.0000 
     29 CA         81.6981   -2.2332   -4.3244 C.3       5 GLY6        0.0000 
     30 NZ         81.1316   -4.2513   -4.6507 N.2       3 LYS4        0.0000 
     31 CZ         78.7270   -1.9436   -0.9571 C.ar      4 PHE5        0.0000 
     32 N          79.4223   -0.8923   -1.7704 N.2       2 ALA2        0.0000 
     33 CA         78.8558   -2.9104   -2.0967 C.3       5 GLY6        0.0000 
     34 N          79.5511   -1.8592   -2.9100 N.2       2 ALA2        0.0000 
     35 CA         80.2464   -0.8080   -3.7233 C.3       5 GLY6        0.0000 
     36 CA         78.9846   -3.8773   -3.2363 C.3       5 GLY6        0.0000 
     37 CA         79.6799   -2.8260   -4.0496 C.3       5 GLY6        0.0000 
     38 N          79.1135   -4.8441   -4.3758 N.2       2 ALA2        0.0000 
     39 CZ         77.5329   -2.4521   -2.6351 C.ar      4 PHE5        0.0000 
     40 NZ         78.2282   -1.4008   -3.4485 N.2       3 LYS4        0.0000 
     41 O          77.6618   -3.4189   -3.7747 O.2       2 ALA2        0.0000 
     42 CA         78.3571   -2.3677   -4.5880 C.3       5 GLY6        0.0000 
     43 CA         77.7906   -4.3858   -4.9143 C.3       5 GLY6        0.0000 
     44 CZ         76.2101   -1.9937   -3.1736 C.ar      4 PHE5        0.0000 
     45 N          75.6436   -4.0118   -3.4999 N.2       2 ALA2        0.0000 
     46 CA         76.3389   -2.9606   -4.3132 C.3       5 GLY6        0.0000 
     47 O          77.0342   -1.9093   -5.1265 O.2       2 ALA2        0.0000 
@<TRIPOS>BOND
@<TRIPOS>SUBSTRUCTURE
     1 SER1        7 GROUP   
     2 ALA2       12 GROUP   
     3 LYS4       30 GROUP   
     4 PHE5       31 GROUP   
     5 GLY6        1 GROUP   
     6 CUB7       28 GROUP   
@<TRIPOS>SET

