#    Name: 2jib_TPP_1_INTS_M
#    Modification time : Tue Mar 25 20:54:52 2014

@<TRIPOS>MOLECULE
2jib_TPP_1_INTS_M
   85     0    12     0     0
SMALL
NO_CHARGES


@<TRIPOS>ATOM
      1 CA         76.6180   -3.4065   -1.9075 C.3       4 GLC5        0.0000 
      2 CA         76.7760   -2.2110   -3.6070 C.3      12 GLL5        0.0000 
      3 CA         76.4600   -4.6020   -0.2080 C.3       8 GLP5        0.0000 
      4 CA         78.1880   -1.4315   -5.0805 C.3       4 GLC5        0.0000 
      5 CA         79.6000   -0.6520   -6.5540 C.3       8 GLP5        0.0000 
      6 CA         75.1155   -1.3520   -2.3550 C.3       4 GLC5        0.0000 
      7 CA         75.3110   -2.0520   -3.8700 C.3      12 GLL5        0.0000 
      8 CA         74.9200   -0.6520   -0.8400 C.3       8 GLP5        0.0000 
      9 CA         75.2315   -3.2385   -5.6370 C.3       4 GLC5        0.0000 
     10 CA         75.1520   -4.4250   -7.4040 C.3       8 GLP5        0.0000 
     11 O          78.8350   -6.0970   -3.7395 O.2       1 ALC1        0.0000 
     12 O          79.2780   -4.7970   -3.5240 O.2       9 ALL1        0.0000 
     13 O          78.3920   -7.3970   -3.9550 O.2       5 ALP1        0.0000 
     14 CA         78.7620    0.5235   -1.7810 C.3       4 GLC5        0.0000 
     15 CA         78.8570   -1.2060   -3.0130 C.3      12 GLL5        0.0000 
     16 CA         78.6670    2.2530   -0.5490 C.3       8 GLP5        0.0000 
     17 CA         82.6030   -1.3585   -2.8985 C.3       4 GLC5        0.0000 
     18 CA         80.9710   -2.4910   -2.7920 C.3      12 GLL5        0.0000 
     19 CA         84.2350   -0.2260   -3.0050 C.3       8 GLP5        0.0000 
     20 CA         81.3590   -1.0130   -4.2980 C.3       4 GLC5        0.0000 
     21 CA         81.7470    0.4650   -5.8040 C.3       8 GLP5        0.0000 
     22 CA         79.8485   -4.6845   -0.7985 C.3       4 GLC5        0.0000 
     23 CA         81.7390   -4.4610   -1.5080 C.3      12 GLL5        0.0000 
     24 CA         77.9580   -4.9080   -0.0890 C.3       8 GLP5        0.0000 
     25 CA         83.2060   -6.0860    1.1455 C.3       4 GLC5        0.0000 
     26 CA         81.8540   -5.0580   -0.0200 C.3      12 GLL5        0.0000 
     27 CA         84.5580   -7.1140    2.3110 C.3       8 GLP5        0.0000 
     28 CA         80.1325   -5.7595    0.3520 C.3       4 GLC5        0.0000 
     29 CA         78.4110   -6.4610    0.7240 C.3       8 GLP5        0.0000 
     30 CA         78.1800   -1.0680   -0.0420 C.3       4 GLC5        0.0000 
     31 CA         80.2560   -1.4410    0.0270 C.3      12 GLL5        0.0000 
     32 CA         76.1040   -0.6950   -0.1110 C.3       8 GLP5        0.0000 
     33 CA         81.1590   -0.0295    1.4025 C.3       4 GLC5        0.0000 
     34 CA         82.0620    1.3820    2.7780 C.3       8 GLP5        0.0000 
     35 CA         79.4615    0.4060   -0.2610 C.3       4 GLC5        0.0000 
     36 CA         79.5095   -4.3190    1.0165 C.3       4 GLC5        0.0000 
     37 CA         81.0610   -3.7300    2.1220 C.3      12 GLL5        0.0000 
     38 CA         83.4090   -5.6845    2.6115 C.3       4 GLC5        0.0000 
     39 CA         82.2600   -4.2550    2.9120 C.3      12 GLL5        0.0000 
     40 CA         84.0320   -4.0145    2.1195 C.3       4 GLC5        0.0000 
     41 CA         85.8040   -3.7740    1.3270 C.3       8 GLP5        0.0000 
     42 Zn         81.9160   -3.9650    7.4370 Zn        3 ZIC7        0.0000 
     43 Zn         81.1980   -4.2050    6.6280 Zn       11 ZIL7        0.0000 
     44 Zn         82.6340   -3.7250    8.2460 Zn        7 ZIP7        0.0000 
     45 N          79.9150   -3.4240    6.8335 N.am      2 SEC2        0.0000 
     46 N          81.1980   -4.2050    6.6280 N.am     10 SEL2        0.0000 
     47 N          78.6320   -2.6430    7.0390 N.am      6 SEP2        0.0000 
     48 N          78.7555   -4.6300    4.7340 N.am      2 SEC2        0.0000 
     49 N          79.9700   -5.2730    4.7620 N.am     10 SEL2        0.0000 
     50 N          77.5410   -3.9870    4.7060 N.am      6 SEP2        0.0000 
     51 N          82.3205   -7.1495    4.1730 N.am      2 SEC2        0.0000 
     52 N          82.2730   -6.2190    5.4240 N.am     10 SEL2        0.0000 
     53 N          82.3680   -8.0800    2.9220 N.am      6 SEP2        0.0000 
     54 N          84.9180   -7.7675    4.8195 N.am      2 SEC2        0.0000 
     55 N          84.8370   -6.5060    5.3450 N.am     10 SEL2        0.0000 
     56 N          84.9990   -9.0290    4.2940 N.am      6 SEP2        0.0000 
     57 N          86.1215   -6.9130    5.2830 N.am      2 SEC2        0.0000 
     58 N          87.4060   -7.3200    5.2210 N.am      6 SEP2        0.0000 
     59 N          84.3585   -7.5335    8.2885 N.am      2 SEC2        0.0000 
     60 N          83.5830   -7.4340    7.2090 N.am     10 SEL2        0.0000 
     61 N          85.1340   -7.6330    9.3680 N.am      6 SEP2        0.0000 
     62 N          83.4605   -8.8445    6.7210 N.am      2 SEC2        0.0000 
     63 N          83.3380  -10.2550    6.2330 N.am      6 SEP2        0.0000 
     64 N          82.6235   -6.5425    8.0420 N.am      2 SEC2        0.0000 
     65 N          81.6640   -5.6510    8.8750 N.am      6 SEP2        0.0000 
     66 Zn         83.2645   -4.3650    7.6525 Zn        3 ZIC7        0.0000 
     67 Zn         83.8950   -5.0050    7.0590 Zn       11 ZIL7        0.0000 
     68 N          84.7615   -4.8220    8.4500 N.am      2 SEC2        0.0000 
     69 N          83.8950   -5.0050    7.0590 N.am     10 SEL2        0.0000 
     70 N          85.6280   -4.6390    9.8410 N.am      6 SEP2        0.0000 
     71 N          84.6825   -3.9605    6.2505 N.am      2 SEC2        0.0000 
     72 N          85.4700   -2.9160    5.4420 N.am      6 SEP2        0.0000 
     73 CA         76.0208   -1.0938   -5.4072 C.3       4 GLC5        0.0000 
     74 CA         75.9980   -0.0560   -7.0760 C.3       8 GLP5        0.0000 
     75 CA         78.5337   -3.9610   -1.6740 C.3       4 GLC5        0.0000 
     76 CA         78.7320   -3.5820   -3.4270 C.3      12 GLL5        0.0000 
     77 CA         79.2916   -1.3810   -4.8450 C.3       4 GLC5        0.0000 
     78 CA         82.9203   -5.7382   -1.3915 C.3       4 GLC5        0.0000 
     79 CA         84.0440   -6.7170   -2.0190 C.3       8 GLP5        0.0000 
     80 CA         79.3053   -3.6276    0.0006 C.3       4 GLC5        0.0000 
     81 CA         81.2230   -3.7380    0.6200 C.3      12 GLL5        0.0000 
     82 CA         80.5943   -2.8333    3.7335 C.3       4 GLC5        0.0000 
     83 CA         79.5280   -1.6740    4.9500 C.3       8 GLP5        0.0000 
     84 CA         82.7655   -2.5697    2.4328 C.3       4 GLC5        0.0000 
     85 CA         83.8300   -1.1450    2.7240 C.3       8 GLP5        0.0000 
@<TRIPOS>BOND
@<TRIPOS>SUBSTRUCTURE
     1 ALC1       11 GROUP        1 X    ALC  0     ROOT ALC X 1
     2 SEC2       45 GROUP        1 X    SEC  0     **** SEC X 2
     3 ZIC7       42 GROUP        1 X    ZIC  0     **** ZIC X 5
     4 GLC5        1 GROUP        1 X    GLC  0     **** GLC X 6
     5 ALP1       13 GROUP        1 Y    ALP  0     ROOT ALP Y 8
     6 SEP2       47 GROUP        1 Y    SEP  0     **** SEP Y 9
     7 ZIP7       44 GROUP        1 Y    ZIP  0     **** ZIP Y 12
     8 GLP5        3 GROUP        1 Y    GLP  0     **** GLP Y 13
     9 ALL1       12 GROUP        1 Z    ALL  0     ROOT ALL Z 15
    10 SEL2       46 GROUP        1 Z    SEL  0     **** SEL Z 16
    11 ZIL7       43 GROUP        1 Z    ZIL  0     **** ZIL Z 19
    12 GLL5        2 GROUP        1 Z    GLL  0     **** GLL Z 20
@<TRIPOS>SET

