#    Name: 2jib_TPP_1_ligand
#    Modification time : Tue Mar 25 20:54:53 2014

@<TRIPOS>MOLECULE
2jib_TPP_1_ligand
   42    43     1     0     0
SMALL
NO_CHARGES


@<TRIPOS>ATOM
      1 N1'        77.5090   -1.0960   -3.2720 N.ar      1 TPP1566     0.0000 
      2 C2'        76.7760   -2.2110   -3.6070 C.ar      1 TPP1566     0.0000 
      3 CM2        75.3110   -2.0520   -3.8700 C.3       1 TPP1566     0.0000 
      4 N3'        77.3790   -3.4490   -3.6850 N.ar      1 TPP1566     0.0000 
      5 C4'        78.7320   -3.5820   -3.4270 C.ar      1 TPP1566     0.0000 
      6 N4'        79.2780   -4.7970   -3.5240 N.pl3     1 TPP1566     0.0000 
      7 C5'        79.4870   -2.4460   -3.0910 C.ar      1 TPP1566     0.0000 
      8 C6'        78.8570   -1.2060   -3.0130 C.ar      1 TPP1566     0.0000 
      9 C7'        80.9710   -2.4910   -2.7920 C.3       1 TPP1566     0.0000 
     10 N3         81.1830   -3.2100   -1.5590 N.pl3     1 TPP1566     0.0000 
     11 C2         81.7390   -4.4610   -1.5080 C.2       1 TPP1566     0.0000 
     12 S1         81.8540   -5.0580   -0.0200 S.3       1 TPP1566     0.0000 
     13 C5         81.2230   -3.7380    0.6200 C.2       1 TPP1566     0.0000 
     14 C4         80.8750   -2.7690   -0.3130 C.2       1 TPP1566     0.0000 
     15 CM4        80.2560   -1.4410    0.0270 C.3       1 TPP1566     0.0000 
     16 C6         81.0610   -3.7300    2.1220 C.3       1 TPP1566     0.0000 
     17 C7         82.2600   -4.2550    2.9120 C.3       1 TPP1566     0.0000 
     18 O7         82.1030   -3.9100    4.2760 O.3       1 TPP1566     0.0000 
     19 PA         81.3320   -4.8880    5.2940 P.3       1 TPP1566     0.0000 
     20 O1A        81.1980   -4.2050    6.6280 O.co2     1 TPP1566     0.0000 
     21 O2A        79.9700   -5.2730    4.7620 O.co2     1 TPP1566     0.0000 
     22 O3A        82.2730   -6.2190    5.4240 O.3       1 TPP1566     0.0000 
     23 PB         83.6710   -6.2680    6.2630 P.3       1 TPP1566     0.0000 
     24 O1B        84.8370   -6.5060    5.3450 O.co2     1 TPP1566     0.0000 
     25 O2B        83.5830   -7.4340    7.2090 O.co2     1 TPP1566     0.0000 
     26 O3B        83.8950   -5.0050    7.0590 O.co2     1 TPP1566     0.0000 
     27 H          78.6514   -5.5446   -3.7442 H         1 TPP1566     0.0000 
     28 H          80.2642   -4.8499   -3.3676 H         1 TPP1566     0.0000 
     29 H          79.4084   -0.3716   -2.7598 H         1 TPP1566     0.0000 
     30 H          81.3396   -1.4645   -2.7209 H         1 TPP1566     0.0000 
     31 H          81.4765   -2.9804   -3.6284 H         1 TPP1566     0.0000 
     32 H          82.0619   -5.0193   -2.2130 H         1 TPP1566     0.0000 
     33 H          80.1692   -4.3321    2.3955 H         1 TPP1566     0.0000 
     34 H          80.8439   -2.6948    2.4595 H         1 TPP1566     0.0000 
     35 H          83.1625   -3.8144    2.4756 H         1 TPP1566     0.0000 
     36 H          82.3059   -5.3388    2.7626 H         1 TPP1566     0.0000 
     37 H          75.1360   -1.4284   -4.6319 H         1 TPP1566     0.0000 
     38 H          74.8781   -2.9238   -4.0994 H         1 TPP1566     0.0000 
     39 H          74.8285   -1.6855   -3.0745 H         1 TPP1566     0.0000 
     40 H          80.1201   -1.3359    1.0121 H         1 TPP1566     0.0000 
     41 H          80.8274   -0.6772   -0.2732 H         1 TPP1566     0.0000 
     42 H          79.3620   -1.3262   -0.4061 H         1 TPP1566     0.0000 
@<TRIPOS>BOND
     1    2    1 ar   
     2    8    1 ar   
     3    3    2 1    
     4    4    2 ar   
     5   37    3 1    
     6   38    3 1    
     7   39    3 1    
     8    5    4 ar   
     9    6    5 1    
    10    7    5 ar   
    11   27    6 1    
    12   28    6 1    
    13    8    7 ar   
    14    9    7 1    
    15   29    8 1    
    16   10    9 1    
    17   30    9 1    
    18   31    9 1    
    19   11   10 2    
    20   14   10 1    
    21   12   11 1    
    22   32   11 1    
    23   13   12 1    
    24   14   13 2    
    25   16   13 1    
    26   15   14 1    
    27   40   15 1    
    28   41   15 1    
    29   42   15 1    
    30   17   16 1    
    31   33   16 1    
    32   34   16 1    
    33   18   17 1    
    34   35   17 1    
    35   36   17 1    
    36   19   18 1    
    37   20   19 ar   
    38   21   19 ar   
    39   22   19 1    
    40   23   22 1    
    41   24   23 ar   
    42   25   23 ar   
    43   26   23 ar   
@<TRIPOS>SUBSTRUCTURE
     1 TPP1566     1 GROUP   
@<TRIPOS>SET

