#    Name: 4efh_ADP_1_INTS_M
#    Modification time : Mon Mar 24 17:42:41 2014

@<TRIPOS>MOLECULE
4efh_ADP_1_INTS_M
   71     0    12     0     0
SMALL
NO_CHARGES


@<TRIPOS>ATOM
      1 NZ          0.5725   13.8380  -23.8950 N.4       3 LYC4        0.0000 
      2 NZ         -0.7090   14.7190  -23.9040 N.4      11 LYL4        0.0000 
      3 NZ          1.8540   12.9570  -23.8860 N.4       7 LYP4        0.0000 
      4 N           0.5725   13.8380  -23.8950 N.am      2 SEC2        0.0000 
      5 N          -0.7090   14.7190  -23.9040 N.am     10 SEL2        0.0000 
      6 N           1.8540   12.9570  -23.8860 N.am      6 SEP2        0.0000 
      7 NZ          1.1525   14.3235  -22.9355 N.4       3 LYC4        0.0000 
      8 NZ          0.4510   15.6900  -21.9850 N.4      11 LYL4        0.0000 
      9 N           0.6980   16.9240  -21.4350 N.am      2 SEC2        0.0000 
     10 N           0.4510   15.6900  -21.9850 N.am     10 SEL2        0.0000 
     11 N           0.9450   18.1580  -20.8850 N.am      6 SEP2        0.0000 
     12 N           1.7170   15.9140  -21.4420 N.am      2 SEC2        0.0000 
     13 N           2.9830   16.1380  -20.8990 N.am      6 SEP2        0.0000 
     14 N          -0.9555   17.4265  -22.9260 N.am      2 SEC2        0.0000 
     15 N          -2.0000   16.2260  -22.4210 N.am     10 SEL2        0.0000 
     16 N           0.0890   18.6270  -23.4310 N.am      6 SEP2        0.0000 
     17 N          -2.1520   17.4575  -22.1650 N.am      2 SEC2        0.0000 
     18 N          -2.3040   18.6890  -21.9090 N.am      6 SEP2        0.0000 
     19 N          -2.8395   15.9655  -21.3015 N.am      2 SEC2        0.0000 
     20 N          -3.6790   15.7050  -20.1820 N.am      6 SEP2        0.0000 
     21 N          -3.0525   10.6740  -22.0930 N.am      2 SEC2        0.0000 
     22 N          -2.2150   11.8090  -22.6330 N.am     10 SEL2        0.0000 
     23 N          -3.8900    9.5390  -21.5530 N.am      6 SEP2        0.0000 
     24 NZ          0.9795   12.4030  -22.8125 N.4       3 LYC4        0.0000 
     25 NZ          0.1050   11.8490  -21.7390 N.4      11 LYL4        0.0000 
     26 N           0.9795   12.4030  -22.8125 N.am      2 SEC2        0.0000 
     27 N           0.1050   11.8490  -21.7390 N.am     10 SEL2        0.0000 
     28 N          -2.8760   10.7105  -20.8525 N.am      2 SEC2        0.0000 
     29 N          -1.8620   11.8820  -20.1520 N.am     10 SEL2        0.0000 
     30 CA         -1.6015   14.5035  -18.8510 C.3       4 GLC5        0.0000 
     31 CA         -1.2840   12.4680  -18.9690 C.3      12 GLL5        0.0000 
     32 CA         -1.9190   16.5390  -18.7330 C.3       8 GLP5        0.0000 
     33 CA         -2.8860   14.4165  -18.4145 C.3       4 GLC5        0.0000 
     34 CA         -2.3510   12.4810  -17.9110 C.3      12 GLL5        0.0000 
     35 CA         -3.4210   16.3520  -18.9180 C.3       8 GLP5        0.0000 
     36 CA         -1.9030   14.7125  -17.6230 C.3       4 GLC5        0.0000 
     37 CA         -1.8870   12.8860  -16.5130 C.3      12 GLL5        0.0000 
     38 N          -3.6820   13.1570  -14.7105 N.am      2 SEC2        0.0000 
     39 N          -2.8220   13.7880  -15.9310 N.am     10 SEL2        0.0000 
     40 N          -4.5420   12.5260  -13.4900 N.am      6 SEP2        0.0000 
     41 O          -2.4200   15.0505  -16.1380 O.2       1 ALC1        0.0000 
     42 O          -2.8220   13.7880  -15.9310 O.2       9 ALL1        0.0000 
     43 O          -2.0180   16.3130  -16.3450 O.2       5 ALP1        0.0000 
     44 CA         -0.5815   12.2565  -14.1010 C.3       4 GLC5        0.0000 
     45 CA         -1.7700   11.5420  -15.7880 C.3      12 GLL5        0.0000 
     46 CA          0.6070   12.9710  -12.4140 C.3       8 GLP5        0.0000 
     47 CA         -1.7270    9.8345  -14.3535 C.3       4 GLC5        0.0000 
     48 CA         -1.6840    8.1270  -12.9190 C.3       8 GLP5        0.0000 
     49 N          -3.2240   12.0665  -13.9325 N.am      2 SEC2        0.0000 
     50 N          -1.9060   11.6070  -14.3750 N.am     10 SEL2        0.0000 
     51 O          -1.0595   10.6480  -14.1575 O.2       1 ALC1        0.0000 
     52 O          -1.9060   11.6070  -14.3750 O.2       9 ALL1        0.0000 
     53 O          -0.2130    9.6890  -13.9400 O.2       5 ALP1        0.0000 
     54 CA         -3.3000    9.8880  -18.3220 C.3       4 GLC5        0.0000 
     55 CA         -2.9010   10.7520  -16.4410 C.3      12 GLL5        0.0000 
     56 CA         -3.6990    9.0240  -20.2030 C.3       8 GLP5        0.0000 
     57 CA         -3.3950    6.1760  -13.7100 C.3       4 GLC5        0.0000 
     58 CA         -3.6880    6.0000  -15.6680 C.3      12 GLL5        0.0000 
     59 CA         -3.1020    6.3520  -11.7520 C.3       8 GLP5        0.0000 
     60 CA         -4.2705    6.8890  -13.4380 C.3       4 GLC5        0.0000 
     61 CA         -5.4390    7.4260  -15.1240 C.3      12 GLL5        0.0000 
     62 CA         -5.3605    6.2495  -16.8225 C.3       4 GLC5        0.0000 
     63 CA         -5.2820    5.0730  -18.5210 C.3       8 GLP5        0.0000 
     64 CA         -3.6590    8.6945  -18.0820 C.3       4 GLC5        0.0000 
     65 CA         -3.6190    8.3650  -15.9610 C.3      12 GLL5        0.0000 
     66 CA         -2.7582   10.7492  -19.3215 C.3       4 GLC5        0.0000 
     67 CA         -3.4333   11.2380  -14.3692 C.3       4 GLC5        0.0000 
     68 CA         -4.5310   11.3290  -12.6240 C.3       8 GLP5        0.0000 
     69 CA         -2.4915    7.9400  -14.4728 C.3       4 GLC5        0.0000 
     70 CA         -4.3791    6.2704  -17.2207 C.3       4 GLC5        0.0000 
     71 CA         -2.9790    7.1410  -16.0920 C.3      12 GLL5        0.0000 
@<TRIPOS>BOND
@<TRIPOS>SUBSTRUCTURE
     1 ALC1       41 GROUP        1 X    ALC  0     ROOT ALC X 1
     2 SEC2        4 GROUP        1 X    SEC  0     **** SEC X 2
     3 LYC4        1 GROUP        1 X    LYC  0     **** LYC X 4
     4 GLC5       30 GROUP        1 X    GLC  0     **** GLC X 6
     5 ALP1       43 GROUP        1 Y    ALP  0     ROOT ALP Y 8
     6 SEP2        6 GROUP        1 Y    SEP  0     **** SEP Y 9
     7 LYP4        3 GROUP        1 Y    LYP  0     **** LYP Y 11
     8 GLP5       32 GROUP        1 Y    GLP  0     **** GLP Y 13
     9 ALL1       42 GROUP        1 Z    ALL  0     ROOT ALL Z 15
    10 SEL2        5 GROUP        1 Z    SEL  0     **** SEL Z 16
    11 LYL4        2 GROUP        1 Z    LYL  0     **** LYL Z 18
    12 GLL5       31 GROUP        1 Z    GLL  0     **** GLL Z 20
@<TRIPOS>SET

