#    Name: 4efh_ADP_1_ligand
#    Modification time : Mon Mar 24 17:42:41 2014

@<TRIPOS>MOLECULE
4efh_ADP_1_ligand
   39    41     1     0     0
SMALL
NO_CHARGES


@<TRIPOS>ATOM
      1 PB         -0.8890   15.1550  -22.5140 P.3       1 ADP403      0.0000 
      2 O1B        -0.7090   14.7190  -23.9040 O.co2     1 ADP403      0.0000 
      3 O2B         0.4510   15.6900  -21.9850 O.co2     1 ADP403      0.0000 
      4 O3B        -2.0000   16.2260  -22.4210 O.co2     1 ADP403      0.0000 
      5 PA         -1.3350   12.3340  -21.5600 P.3       1 ADP403      0.0000 
      6 O1A        -2.2150   11.8090  -22.6330 O.co2     1 ADP403      0.0000 
      7 O2A         0.1050   11.8490  -21.7390 O.co2     1 ADP403      0.0000 
      8 O3A        -1.3450   13.9340  -21.5870 O.3       1 ADP403      0.0000 
      9 O5'        -1.8620   11.8820  -20.1520 O.3       1 ADP403      0.0000 
     10 C5'        -1.2840   12.4680  -18.9690 C.3       1 ADP403      0.0000 
     11 C4'        -2.3510   12.4810  -17.9110 C.3       1 ADP403      0.0000 
     12 O4'        -2.9020   11.1520  -17.7920 O.3       1 ADP403      0.0000 
     13 C3'        -1.8870   12.8860  -16.5130 C.3       1 ADP403      0.0000 
     14 O3'        -2.8220   13.7880  -15.9310 O.3       1 ADP403      0.0000 
     15 C2'        -1.7700   11.5420  -15.7880 C.3       1 ADP403      0.0000 
     16 O2'        -1.9060   11.6070  -14.3750 O.3       1 ADP403      0.0000 
     17 C1'        -2.9010   10.7520  -16.4410 C.3       1 ADP403      0.0000 
     18 N9         -2.7230    9.3040  -16.4080 N.pl3     1 ADP403      0.0000 
     19 C8         -1.6110    8.6010  -16.7990 C.2       1 ADP403      0.0000 
     20 N7         -1.7100    7.3060  -16.6300 N.2       1 ADP403      0.0000 
     21 C5         -2.9790    7.1410  -16.0920 C.ar      1 ADP403      0.0000 
     22 C6         -3.6880    6.0000  -15.6680 C.ar      1 ADP403      0.0000 
     23 N6         -3.1990    4.7610  -15.7420 N.pl3     1 ADP403      0.0000 
     24 N1         -4.9400    6.1820  -15.1790 N.ar      1 ADP403      0.0000 
     25 C2         -5.4390    7.4260  -15.1240 C.ar      1 ADP403      0.0000 
     26 N3         -4.8600    8.5770  -15.4860 N.ar      1 ADP403      0.0000 
     27 C4         -3.6190    8.3650  -15.9610 C.ar      1 ADP403      0.0000 
     28 H          -0.9591   13.4890  -19.1519 H         1 ADP403      0.0000 
     29 H          -0.4411   11.8834  -18.6097 H         1 ADP403      0.0000 
     30 H          -3.1461   13.1626  -18.2104 H         1 ADP403      0.0000 
     31 H          -0.9024   13.2925  -16.6157 H         1 ADP403      0.0000 
     32 H          -0.8493   11.0858  -16.1175 H         1 ADP403      0.0000 
     33 H          -3.8244   11.0377  -15.9701 H         1 ADP403      0.0000 
     34 H          -0.8060    9.0698  -17.1787 H         1 ADP403      0.0000 
     35 H          -3.7855    4.0344  -15.3841 H         1 ADP403      0.0000 
     36 H          -2.2900    4.6703  -16.1487 H         1 ADP403      0.0000 
     37 H          -6.4667    7.5106  -14.7260 H         1 ADP403      0.0000 
     38 H          -2.4487   14.6984  -16.1095 H         1 ADP403      0.0000 
     39 H          -1.3113   10.8835  -14.0243 H         1 ADP403      0.0000 
@<TRIPOS>BOND
     1    2    1 ar   
     2    3    1 ar   
     3    4    1 ar   
     4    8    1 1    
     5    6    5 ar   
     6    7    5 ar   
     7    8    5 1    
     8    9    5 1    
     9   10    9 1    
    10   11   10 1    
    11   28   10 1    
    12   29   10 1    
    13   12   11 1    
    14   13   11 1    
    15   30   11 1    
    16   17   12 1    
    17   14   13 1    
    18   15   13 1    
    19   31   13 1    
    20   38   14 1    
    21   16   15 1    
    22   17   15 1    
    23   32   15 1    
    24   39   16 1    
    25   18   17 1    
    26   33   17 1    
    27   19   18 1    
    28   27   18 1    
    29   20   19 2    
    30   34   19 1    
    31   21   20 1    
    32   22   21 ar   
    33   27   21 ar   
    34   23   22 1    
    35   24   22 ar   
    36   35   23 1    
    37   36   23 1    
    38   25   24 ar   
    39   26   25 ar   
    40   37   25 1    
    41   27   26 ar   
@<TRIPOS>SUBSTRUCTURE
     1 ADP403      1 GROUP   
@<TRIPOS>SET

