#    Name: 3q9b_B3N_7_INTS_M
#    Modification time : Tue Mar 25 09:08:03 2014

@<TRIPOS>MOLECULE
3q9b_B3N_7_INTS_M
   62     0     9     0     0
SMALL
NO_CHARGES


@<TRIPOS>ATOM
      1 CA         72.7425   28.4810  105.8850 C.3       3 GLC5        0.0000 
      2 CA         74.8070   28.9310  105.1620 C.3       9 GLL5        0.0000 
      3 CA         70.6780   28.0310  106.6080 C.3       6 GLP5        0.0000 
      4 CA         75.0130   30.3140  106.4640 C.3       3 GLC5        0.0000 
      5 CA         75.2190   31.6970  107.7660 C.3       6 GLP5        0.0000 
      6 CA         76.1600   28.4320  103.4755 C.3       3 GLC5        0.0000 
      7 CA         77.5130   27.9330  101.7890 C.3       6 GLP5        0.0000 
      8 CA         76.4380   30.4110  105.0260 C.3       3 GLC5        0.0000 
      9 CA         78.0690   31.8910  104.8900 C.3       6 GLP5        0.0000 
     10 CA         75.8005   27.6545  102.5730 C.3       3 GLC5        0.0000 
     11 CA         74.0880   27.3760  103.3570 C.3       9 GLL5        0.0000 
     12 CA         68.5075   38.4880  102.0305 C.3       3 GLC5        0.0000 
     13 CA         68.9900   36.3610  101.6900 C.3       9 GLL5        0.0000 
     14 CA         68.0250   40.6150  102.3710 C.3       6 GLP5        0.0000 
     15 CA         69.8845   39.2950   99.6510 C.3       3 GLC5        0.0000 
     16 CA         70.7220   37.7790  100.5510 C.3       9 GLL5        0.0000 
     17 CA         69.0470   40.8110   98.7510 C.3       6 GLP5        0.0000 
     18 CA         69.3735   39.1970  101.4610 C.3       3 GLC5        0.0000 
     19 CA         68.6830   37.9605  100.0300 C.3       3 GLC5        0.0000 
     20 CA         66.6440   38.1420   99.5090 C.3       6 GLP5        0.0000 
     21 CA         70.8470   39.5030   98.8965 C.3       3 GLC5        0.0000 
     22 CA         72.6470   38.1950   99.0420 C.3       9 GLL5        0.0000 
     23 CA         71.5770   37.1190   97.6505 C.3       3 GLC5        0.0000 
     24 CA         70.5070   36.0430   96.2590 C.3       6 GLP5        0.0000 
     25 CA         74.5915   39.0180   98.5570 C.3       3 GLC5        0.0000 
     26 CA         76.5360   39.8410   98.0720 C.3       6 GLP5        0.0000 
     27 Zn         73.5040   37.5630   97.5690 Zn        2 ZIC7        0.0000 
     28 Zn         73.5440   37.4740   98.6140 Zn        8 ZIL7        0.0000 
     29 Zn         73.4640   37.6520   96.5240 Zn        5 ZIP7        0.0000 
     30 Zn         72.7310   38.3535   97.3815 Zn        2 ZIC7        0.0000 
     31 Zn         71.9980   39.0550   98.2390 Zn        8 ZIL7        0.0000 
     32 N          71.7045   40.2490   97.2200 N.am      1 SEC2        0.0000 
     33 N          71.9980   39.0550   98.2390 N.am      7 SEL2        0.0000 
     34 N          71.4110   41.4430   96.2010 N.am      4 SEP2        0.0000 
     35 N          70.5990   39.4360   98.0275 N.am      1 SEC2        0.0000 
     36 N          69.2000   39.8170   97.8160 N.am      4 SEP2        0.0000 
     37 Zn         72.8645   38.3965   96.7815 Zn        2 ZIC7        0.0000 
     38 Zn         72.2650   39.1410   97.0390 Zn        8 ZIL7        0.0000 
     39 N          71.8380   40.2920   96.6200 N.am      1 SEC2        0.0000 
     40 N          72.2650   39.1410   97.0390 N.am      7 SEL2        0.0000 
     41 N          70.7325   39.4790   97.4275 N.am      1 SEC2        0.0000 
     42 CA         72.8672   31.6685  102.5475 C.3       3 GLC5        0.0000 
     43 CA         70.6220   31.2990  102.9350 C.3       9 GLL5        0.0000 
     44 CA         74.6750   31.8630  101.6240 C.3       6 GLP5        0.0000 
     45 CA         73.6778   31.0083  102.8298 C.3       3 GLC5        0.0000 
     46 CA         72.5670   30.7770  104.3780 C.3       9 GLL5        0.0000 
     47 CA         72.7643   29.9383  101.0913 C.3       3 GLC5        0.0000 
     48 CA         71.9040   29.1890  102.6070 C.3       9 GLL5        0.0000 
     49 CA         74.1600   30.2500   99.7610 C.3       6 GLP5        0.0000 
     50 CA         67.7288   36.0442  104.5517 C.3       3 GLC5        0.0000 
     51 CA         68.2580   34.3520  102.9820 C.3       9 GLL5        0.0000 
     52 CA         66.9530   37.0150  106.0680 C.3       6 GLP5        0.0000 
     53 CA         66.9767   35.4507  101.7593 C.3       3 GLC5        0.0000 
     54 CA         68.7510   35.7950  103.0890 C.3       9 GLL5        0.0000 
     55 CA         65.4490   35.8280  100.4830 C.3       6 GLP5        0.0000 
     56 CA         70.2763   36.8350  103.5757 C.3       3 GLC5        0.0000 
     57 CA         71.6820   37.5920  104.7620 C.3       6 GLP5        0.0000 
     58 CA         68.3095   36.6830  100.2205 C.3       3 GLC5        0.0000 
     59 CA         70.4660   36.5450  101.3820 C.3       9 GLL5        0.0000 
     60 CA         66.8910   36.9130   98.9050 C.3       6 GLP5        0.0000 
     61 CA         71.9755   37.9072  102.2889 C.3       3 GLC5        0.0000 
     62 CA         72.5460   38.1780  103.8550 C.3       6 GLP5        0.0000 
@<TRIPOS>BOND
@<TRIPOS>SUBSTRUCTURE
     1 SEC2       32 GROUP        1 X    SEC  0     ROOT SEC X 2
     2 ZIC7       27 GROUP        1 X    ZIC  0     **** ZIC X 5
     3 GLC5        1 GROUP        1 X    GLC  0     **** GLC X 6
     4 SEP2       34 GROUP        1 Y    SEP  0     ROOT SEP Y 9
     5 ZIP7       29 GROUP        1 Y    ZIP  0     **** ZIP Y 12
     6 GLP5        3 GROUP        1 Y    GLP  0     **** GLP Y 13
     7 SEL2       33 GROUP        1 Z    SEL  0     ROOT SEL Z 16
     8 ZIL7       28 GROUP        1 Z    ZIL  0     **** ZIL Z 19
     9 GLL5        2 GROUP        1 Z    GLL  0     **** GLL Z 20
@<TRIPOS>SET

