#    Name: 3q9b_B3N_7_ligand
#    Modification time : Tue Mar 25 09:08:03 2014

@<TRIPOS>MOLECULE
3q9b_B3N_7_ligand
   47    47     1     0     0
SMALL
NO_CHARGES


@<TRIPOS>ATOM
      1 O23        68.7310   31.8960  101.6090 O.2       1 B3N401      0.0000 
      2 C13        69.4730   32.2220  102.5410 C.2       1 B3N401      0.0000 
      3 C14        70.6220   31.2990  102.9350 C.ar      1 B3N401      0.0000 
      4 C15        71.4970   31.6490  104.0070 C.ar      1 B3N401      0.0000 
      5 C16        72.5670   30.7770  104.3780 C.ar      1 B3N401      0.0000 
      6 C17        72.7940   29.5300  103.6930 C.ar      1 B3N401      0.0000 
      7 N20        73.8730   28.6420  104.0690 N.pl3     1 B3N401      0.0000 
      8 C22        74.8070   28.9310  105.1620 C.3       1 B3N401      0.0000 
      9 C21        74.0880   27.3760  103.3570 C.3       1 B3N401      0.0000 
     10 C18        71.9040   29.1890  102.6070 C.ar      1 B3N401      0.0000 
     11 C19        70.8330   30.0640  102.2360 C.ar      1 B3N401      0.0000 
     12 N12        69.2990   33.3660  103.2220 N.am      1 B3N401      0.0000 
     13 C10        68.2580   34.3520  102.9820 C.3       1 B3N401      0.0000 
     14 C9         68.7510   35.7950  103.0890 C.3       1 B3N401      0.0000 
     15 C8         68.9900   36.3610  101.6900 C.3       1 B3N401      0.0000 
     16 C7         70.4660   36.5450  101.3820 C.3       1 B3N401      0.0000 
     17 C6         70.7220   37.7790  100.5510 C.3       1 B3N401      0.0000 
     18 C5         72.2160   38.1110  100.4790 C.3       1 B3N401      0.0000 
     19 C1         72.6470   38.1950   99.0420 C.3       1 B3N401      0.0000 
     20 O2         73.5440   37.4740   98.6140 O.3       1 B3N401      0.0000 
     21 N3         71.9980   39.0550   98.2390 N.2       1 B3N401      0.0000 
     22 O4         72.2650   39.1410   97.0390 O.2       1 B3N401      0.0000 
     23 H          71.3592   32.5230  104.5099 H         1 B3N401      0.0000 
     24 H          73.1894   31.0403  105.1479 H         1 B3N401      0.0000 
     25 H          72.0446   28.3157  102.1035 H         1 B3N401      0.0000 
     26 H          70.2141   29.8082  101.4683 H         1 B3N401      0.0000 
     27 H          69.9644   33.6133  104.0216 H         1 B3N401      0.0000 
     28 H          67.4244   34.2254  103.7016 H         1 B3N401      0.0000 
     29 H          67.8171   34.2194  101.9737 H         1 B3N401      0.0000 
     30 H          69.6783   35.8172  103.6492 H         1 B3N401      0.0000 
     31 H          68.0034   36.3934  103.5962 H         1 B3N401      0.0000 
     32 H          68.4787   37.3276  101.6049 H         1 B3N401      0.0000 
     33 H          68.5474   35.6822  100.9509 H         1 B3N401      0.0000 
     34 H          70.8327   35.6613  100.8454 H         1 B3N401      0.0000 
     35 H          71.0221   36.6182  102.3247 H         1 B3N401      0.0000 
     36 H          70.1922   38.6318  100.9849 H         1 B3N401      0.0000 
     37 H          70.3464   37.6238   99.5356 H         1 B3N401      0.0000 
     38 H          72.7740   37.3318  100.9903 H         1 B3N401      0.0000 
     39 H          72.3890   39.0614  100.9759 H         1 B3N401      0.0000 
     40 H          73.5752   39.2272   99.4194 H         1 B3N401      0.0000 
     41 H          75.4824   28.2024  105.2758 H         1 B3N401      0.0000 
     42 H          75.3138   29.7783  105.0032 H         1 B3N401      0.0000 
     43 H          74.3344   29.0319  106.0375 H         1 B3N401      0.0000 
     44 H          74.2705   27.5230  102.3849 H         1 B3N401      0.0000 
     45 H          74.8659   26.8688  103.7279 H         1 B3N401      0.0000 
     46 H          73.2907   26.7756  103.4180 H         1 B3N401      0.0000 
     47 H          74.3686   38.0387   98.6487 H         1 B3N401      0.0000 
@<TRIPOS>BOND
     1    2    1 2    
     2    3    2 1    
     3   12    2 am   
     4    4    3 ar   
     5   11    3 ar   
     6    5    4 ar   
     7   23    4 1    
     8    6    5 ar   
     9   24    5 1    
    10    7    6 1    
    11   10    6 ar   
    12    8    7 1    
    13    9    7 1    
    14   41    8 1    
    15   42    8 1    
    16   43    8 1    
    17   44    9 1    
    18   45    9 1    
    19   46    9 1    
    20   11   10 ar   
    21   25   10 1    
    22   26   11 1    
    23   13   12 1    
    24   27   12 1    
    25   14   13 1    
    26   28   13 1    
    27   29   13 1    
    28   15   14 1    
    29   30   14 1    
    30   31   14 1    
    31   16   15 1    
    32   32   15 1    
    33   33   15 1    
    34   17   16 1    
    35   34   16 1    
    36   35   16 1    
    37   18   17 1    
    38   36   17 1    
    39   37   17 1    
    40   19   18 1    
    41   38   18 1    
    42   39   18 1    
    43   20   19 1    
    44   21   19 1    
    45   40   19 1    
    46   47   20 1    
    47   22   21 2    
@<TRIPOS>SUBSTRUCTURE
     1 B3N401      1 GROUP   
@<TRIPOS>SET

