#    Name: 1ere_EST_1_INTS_M
#    Modification time : Tue Mar 25 00:11:11 2014

@<TRIPOS>MOLECULE
1ere_EST_1_INTS_M
   67     0     9     0     0
SMALL
NO_CHARGES


@<TRIPOS>ATOM
      1 CA          7.5255   46.4405  127.7210 C.3       3 GLC5        0.0000 
      2 CA          7.1020   47.1420  129.4860 C.3       9 GLL5        0.0000 
      3 CA          7.9490   45.7390  125.9560 C.3       6 GLP5        0.0000 
      4 CA          6.6890   47.3335  127.0145 C.3       3 GLC5        0.0000 
      5 CA          6.5600   48.2350  128.8130 C.3       9 GLL5        0.0000 
      6 CA          6.8180   46.4320  125.2160 C.3       6 GLP5        0.0000 
      7 CA          8.3610   48.5175  127.5920 C.3       3 GLC5        0.0000 
      8 CA         10.1620   48.8000  126.3710 C.3       6 GLP5        0.0000 
      9 N           5.3440   51.5750  128.8845 N.am      2 SEC2        0.0000 
     10 N           6.4960   50.5650  128.5160 N.am      8 SEL2        0.0000 
     11 N           4.1920   52.5850  129.2530 N.am      5 SEP2        0.0000 
     12 N           6.6305   51.8640  128.0650 N.am      2 SEC2        0.0000 
     13 N           6.7650   53.1630  127.6140 N.am      5 SEP2        0.0000 
     14 O           5.9095   50.3705  127.5205 O.2       1 ALC1        0.0000 
     15 O           6.4960   50.5650  128.5160 O.2       7 ALL1        0.0000 
     16 O           5.3230   50.1760  126.5250 O.2       4 ALP1        0.0000 
     17 CA          7.5190   51.3980  131.3295 C.3       3 GLC5        0.0000 
     18 CA          7.9670   49.7080  130.1610 C.3       9 GLL5        0.0000 
     19 CA          7.0710   53.0880  132.4980 C.3       6 GLP5        0.0000 
     20 CA         11.0615   49.9420  132.0185 C.3       3 GLC5        0.0000 
     21 CA          9.2580   48.8540  132.0910 C.3       9 GLL5        0.0000 
     22 CA         12.8650   51.0300  131.9460 C.3       6 GLP5        0.0000 
     23 CA         11.6920   48.1100  133.0090 C.3       3 GLC5        0.0000 
     24 CA          9.6040   47.5900  132.8650 C.3       9 GLL5        0.0000 
     25 CA         13.7800   48.6300  133.1530 C.3       6 GLP5        0.0000 
     26 CA         11.4995   47.2635  130.7170 C.3       3 GLC5        0.0000 
     27 CA          9.9070   46.4370  131.9130 C.3       9 GLL5        0.0000 
     28 CA         13.0920   48.0900  129.5210 C.3       6 GLP5        0.0000 
     29 CA          7.0235   47.0775  132.1410 C.3       3 GLC5        0.0000 
     30 CA          8.6090   46.1010  131.1520 C.3       9 GLL5        0.0000 
     31 CA          5.4380   48.0540  133.1300 C.3       6 GLP5        0.0000 
     32 CA          8.3990   45.3490  128.0600 C.3       3 GLC5        0.0000 
     33 CA          8.8490   44.9590  130.1640 C.3       9 GLL5        0.0000 
     34 CA          9.0570   41.5150  131.2780 C.3       3 GLC5        0.0000 
     35 CA          9.2400   43.6710  130.9520 C.3       9 GLL5        0.0000 
     36 CA          8.8740   39.3590  131.6040 C.3       6 GLP5        0.0000 
     37 CA         12.6965   46.9120  133.2795 C.3       3 GLC5        0.0000 
     38 CA         11.6130   45.1940  133.4060 C.3       9 GLL5        0.0000 
     39 CA         12.0090   45.9725  135.2095 C.3       3 GLC5        0.0000 
     40 CA         12.4050   46.7510  137.0130 C.3       6 GLP5        0.0000 
     41 CA         10.1195   43.3245  135.3185 C.3       3 GLC5        0.0000 
     42 CA         11.6390   43.7080  133.9160 C.3       9 GLL5        0.0000 
     43 CA          8.6000   42.9410  136.7210 C.3       6 GLP5        0.0000 
     44 CA         12.7910   43.9260  135.5105 C.3       3 GLC5        0.0000 
     45 CA         13.9430   44.1440  137.1050 C.3       6 GLP5        0.0000 
     46 CA         12.6330   42.1230  134.6930 C.3       3 GLC5        0.0000 
     47 CA         13.6270   40.5380  135.4700 C.3       6 GLP5        0.0000 
     48 CA          9.8940   41.1630  132.1910 C.3       3 GLC5        0.0000 
     49 CA         10.9140   42.9670  132.7780 C.3       9 GLL5        0.0000 
     50 N          12.1185   41.2175  133.4520 N.am      2 SEC2        0.0000 
     51 N          11.6950   41.8830  132.2930 N.am      8 SEL2        0.0000 
     52 N          12.5420   40.5520  134.6110 N.am      5 SEP2        0.0000 
     53 CA         12.3665   46.1620  130.1380 C.3       3 GLC5        0.0000 
     54 CA         11.6410   44.2340  130.7550 C.3       9 GLL5        0.0000 
     55 CA         12.7765   42.6560  130.3310 C.3       3 GLC5        0.0000 
     56 CA         13.9120   41.0780  129.9070 C.3       6 GLP5        0.0000 
     57 CA          8.9922   50.2905  128.5795 C.3       3 GLC5        0.0000 
     58 CA         10.4940   50.9920  127.4940 C.3       6 GLP5        0.0000 
     59 CA          7.4345   48.1380  132.8040 C.3       3 GLC5        0.0000 
     60 CA          9.5925   49.0050  134.4610 C.3       3 GLC5        0.0000 
     61 CA          9.7540   49.7880  136.4440 C.3       6 GLP5        0.0000 
     62 CA          8.1826   49.6410  133.1084 C.3       3 GLC5        0.0000 
     63 CA          7.1260   51.1270  134.0550 C.3       6 GLP5        0.0000 
     64 CA          7.0288   43.7730  130.9405 C.3       3 GLC5        0.0000 
     65 CA          5.0130   43.2310  131.3230 C.3       6 GLP5        0.0000 
     66 CA         13.7165   44.8160  133.6145 C.3       3 GLC5        0.0000 
     67 CA         15.8070   45.1810  133.5680 C.3       6 GLP5        0.0000 
@<TRIPOS>BOND
@<TRIPOS>SUBSTRUCTURE
     1 ALC1       14 GROUP        1 X    ALC  0     ROOT ALC X 1
     2 SEC2        9 GROUP        1 X    SEC  0     **** SEC X 2
     3 GLC5        1 GROUP        1 X    GLC  0     **** GLC X 6
     4 ALP1       16 GROUP        1 Y    ALP  0     ROOT ALP Y 8
     5 SEP2       11 GROUP        1 Y    SEP  0     **** SEP Y 9
     6 GLP5        3 GROUP        1 Y    GLP  0     **** GLP Y 13
     7 ALL1       15 GROUP        1 Z    ALL  0     ROOT ALL Z 15
     8 SEL2       10 GROUP        1 Z    SEL  0     **** SEL Z 16
     9 GLL5        2 GROUP        1 Z    GLL  0     **** GLL Z 20
@<TRIPOS>SET

