#    Name: 1ere_EST_1_ligand
#    Modification time : Tue Mar 25 00:11:11 2014

@<TRIPOS>MOLECULE
1ere_EST_1_ligand
   44    47     1     0     0
SMALL
NO_CHARGES


@<TRIPOS>ATOM
      1 C1          7.1020   47.1420  129.4860 C.ar      1 EST600      0.0000 
      2 C2          6.5600   48.2350  128.8130 C.ar      1 EST600      0.0000 
      3 C3          7.0140   49.4700  129.1690 C.ar      1 EST600      0.0000 
      4 O3          6.4960   50.5650  128.5160 O.3       1 EST600      0.0000 
      5 C4          7.9670   49.7080  130.1610 C.ar      1 EST600      0.0000 
      6 C5          8.4910   48.5860  130.8260 C.ar      1 EST600      0.0000 
      7 C6          9.2580   48.8540  132.0910 C.3       1 EST600      0.0000 
      8 C7          9.6040   47.5900  132.8650 C.3       1 EST600      0.0000 
      9 C8          9.9070   46.4370  131.9130 C.3       1 EST600      0.0000 
     10 C9          8.6090   46.1010  131.1520 C.3       1 EST600      0.0000 
     11 C10         8.0610   47.3120  130.4770 C.ar      1 EST600      0.0000 
     12 C11         8.8490   44.9590  130.1640 C.3       1 EST600      0.0000 
     13 C12         9.2400   43.6710  130.9520 C.3       1 EST600      0.0000 
     14 C13        10.5000   44.0090  131.7360 C.3       1 EST600      0.0000 
     15 C14        10.2590   45.2020  132.6850 C.3       1 EST600      0.0000 
     16 C15        11.6130   45.1940  133.4060 C.3       1 EST600      0.0000 
     17 C16        11.6390   43.7080  133.9160 C.3       1 EST600      0.0000 
     18 C17        10.9140   42.9670  132.7780 C.3       1 EST600      0.0000 
     19 O17        11.6950   41.8830  132.2930 O.3       1 EST600      0.0000 
     20 C18        11.6410   44.2340  130.7550 C.3       1 EST600      0.0000 
     21 H           6.7834   46.1869  129.2421 H         1 EST600      0.0000 
     22 H           5.8604   48.1026  128.0934 H         1 EST600      0.0000 
     23 H           8.2678   50.6376  130.3925 H         1 EST600      0.0000 
     24 H           8.6689   49.5192  132.7442 H         1 EST600      0.0000 
     25 H          10.1921   49.3877  131.8484 H         1 EST600      0.0000 
     26 H           8.7649   47.3165  133.5040 H         1 EST600      0.0000 
     27 H          10.4760   47.7769  133.4910 H         1 EST600      0.0000 
     28 H          10.6516   46.6918  131.2339 H         1 EST600      0.0000 
     29 H           7.8831   45.7497  131.8959 H         1 EST600      0.0000 
     30 H           9.6575   45.2144  129.4974 H         1 EST600      0.0000 
     31 H           7.9477   44.7615  129.6055 H         1 EST600      0.0000 
     32 H           9.4378   42.8877  130.2532 H         1 EST600      0.0000 
     33 H           8.4442   43.4221  131.6196 H         1 EST600      0.0000 
     34 H           9.5101   44.9005  133.3695 H         1 EST600      0.0000 
     35 H          11.5916   45.8323  134.2272 H         1 EST600      0.0000 
     36 H          12.3881   45.3310  132.7258 H         1 EST600      0.0000 
     37 H          11.0847   43.6428  134.8021 H         1 EST600      0.0000 
     38 H          12.6341   43.3880  133.9809 H         1 EST600      0.0000 
     39 H           9.9694   42.5935  133.2367 H         1 EST600      0.0000 
     40 H          12.4942   44.4628  131.2238 H         1 EST600      0.0000 
     41 H          11.8200   43.4211  130.2007 H         1 EST600      0.0000 
     42 H          11.4444   44.9829  130.1221 H         1 EST600      0.0000 
     43 H           5.6544   50.2364  128.0874 H         1 EST600      0.0000 
     44 H          10.7451   41.5814  132.3756 H         1 EST600      0.0000 
@<TRIPOS>BOND
     1    2    1 ar   
     2   11    1 ar   
     3   21    1 1    
     4    3    2 ar   
     5   22    2 1    
     6    4    3 1    
     7    5    3 ar   
     8   43    4 1    
     9    6    5 ar   
    10   23    5 1    
    11    7    6 1    
    12   11    6 ar   
    13    8    7 1    
    14   24    7 1    
    15   25    7 1    
    16    9    8 1    
    17   26    8 1    
    18   27    8 1    
    19   10    9 1    
    20   15    9 1    
    21   28    9 1    
    22   11   10 1    
    23   12   10 1    
    24   29   10 1    
    25   13   12 1    
    26   30   12 1    
    27   31   12 1    
    28   14   13 1    
    29   32   13 1    
    30   33   13 1    
    31   15   14 1    
    32   18   14 1    
    33   20   14 1    
    34   16   15 1    
    35   34   15 1    
    36   17   16 1    
    37   35   16 1    
    38   36   16 1    
    39   18   17 1    
    40   37   17 1    
    41   38   17 1    
    42   19   18 1    
    43   39   18 1    
    44   44   19 1    
    45   40   20 1    
    46   41   20 1    
    47   42   20 1    
@<TRIPOS>SUBSTRUCTURE
     1 EST600      1 GROUP   
@<TRIPOS>SET

