#    Name: 1qcj_APT_1_INTS_M
#    Modification time : Mon Mar 24 23:21:54 2014

@<TRIPOS>MOLECULE
1qcj_APT_1_INTS_M
   43     0     9     0     0
SMALL
NO_CHARGES


@<TRIPOS>ATOM
      1 CA          3.7630    7.4055   45.9405 C.3       3 GLC5        0.0000 
      2 CA          5.2960    5.8780   45.4200 C.3       9 GLL5        0.0000 
      3 CA          2.2300    8.9330   46.4610 C.3       6 GLP5        0.0000 
      4 CA          7.0955    5.0240   45.6385 C.3       3 GLC5        0.0000 
      5 CA          8.8950    4.1700   45.8570 C.3       6 GLP5        0.0000 
      6 CA          4.8075    6.0735   51.5300 C.3       3 GLC5        0.0000 
      7 CA          4.1070    6.6180   49.5000 C.3       9 GLL5        0.0000 
      8 CA          5.5080    5.5290   53.5600 C.3       6 GLP5        0.0000 
      9 N           2.4790    7.0640   50.8735 N.am      2 SEC2        0.0000 
     10 N           3.7320    6.8830   50.7230 N.am      8 SEL2        0.0000 
     11 N           1.2260    7.2450   51.0240 N.am      5 SEP2        0.0000 
     12 CA          4.1580    9.8280   50.8550 C.3       3 GLC5        0.0000 
     13 CA          4.3590    7.8180   51.4080 C.3       9 GLL5        0.0000 
     14 CA          3.9570   11.8380   50.3020 C.3       6 GLP5        0.0000 
     15 CA          4.9335    6.6735   52.4840 C.3       3 GLC5        0.0000 
     16 N           5.6780   10.1475   51.3325 N.am      2 SEC2        0.0000 
     17 N           5.3880    8.5770   51.0310 N.am      8 SEL2        0.0000 
     18 N           5.9680   11.7180   51.6340 N.am      5 SEP2        0.0000 
     19 CA          7.1785    7.3800   51.3090 C.3       3 GLC5        0.0000 
     20 CA          5.8530    8.4080   49.8100 C.3       9 GLL5        0.0000 
     21 CA          8.5040    6.3520   52.8080 C.3       6 GLP5        0.0000 
     22 N           6.4310   10.4750   50.5620 N.am      2 SEC2        0.0000 
     23 N           6.8940    9.2320   49.4900 N.am      8 SEL2        0.0000 
     24 O           7.8285    8.9525   48.2990 O.2       1 ALC1        0.0000 
     25 O           6.8940    9.2320   49.4900 O.2       7 ALL1        0.0000 
     26 O           8.7630    8.6730   47.1080 O.2       4 ALP1        0.0000 
     27 CA          1.4065    1.0490   46.2775 C.3       3 GLC5        0.0000 
     28 CA          3.3980    1.6630   45.8170 C.3       9 GLL5        0.0000 
     29 CA         -0.5850    0.4350   46.7380 C.3       6 GLP5        0.0000 
     30 CA          6.7965    1.6945   45.1590 C.3       3 GLC5        0.0000 
     31 CA          5.1840    3.2450   45.3120 C.3       9 GLL5        0.0000 
     32 CA          8.4090    0.1440   45.0060 C.3       6 GLP5        0.0000 
     33 CA          4.9655    9.8567   49.0985 C.3       3 GLC5        0.0000 
     34 CA          5.2470    7.4050   48.9120 C.3       9 GLL5        0.0000 
     35 CA          4.3810   11.8070   48.8360 C.3       6 GLP5        0.0000 
     36 CA          7.5200    8.0627   48.7960 C.3       3 GLC5        0.0000 
     37 CA          9.4900    8.2190   48.2310 C.3       6 GLP5        0.0000 
     38 CA          7.2477    3.4450   45.5318 C.3       3 GLC5        0.0000 
     39 CA          6.0196    0.7368   46.8406 C.3       3 GLC5        0.0000 
     40 CA          6.0170    2.1950   45.1010 C.3       9 GLL5        0.0000 
     41 CA          6.9930    0.3900   48.2990 C.3       6 GLP5        0.0000 
     42 CA          6.7276    0.6138   45.1941 C.3       3 GLC5        0.0000 
     43 CA          5.5740    0.9090   45.2440 C.3       9 GLL5        0.0000 
@<TRIPOS>BOND
@<TRIPOS>SUBSTRUCTURE
     1 ALC1       24 GROUP        1 X    ALC  0     ROOT ALC X 1
     2 SEC2        9 GROUP        1 X    SEC  0     **** SEC X 2
     3 GLC5        1 GROUP        1 X    GLC  0     **** GLC X 6
     4 ALP1       26 GROUP        1 Y    ALP  0     ROOT ALP Y 8
     5 SEP2       11 GROUP        1 Y    SEP  0     **** SEP Y 9
     6 GLP5        3 GROUP        1 Y    GLP  0     **** GLP Y 13
     7 ALL1       25 GROUP        1 Z    ALL  0     ROOT ALL Z 15
     8 SEL2       10 GROUP        1 Z    SEL  0     **** SEL Z 16
     9 GLL5        2 GROUP        1 Z    GLL  0     **** GLL Z 20
@<TRIPOS>SET

