#    Name: 1qcj_APT_1_ligand
#    Modification time : Mon Mar 24 23:21:54 2014

@<TRIPOS>MOLECULE
1qcj_APT_1_ligand
   34    36     1     0     0
SMALL
NO_CHARGES


@<TRIPOS>ATOM
      1 C8          5.2960    5.8780   45.4200 C.3       1 APT902      0.0000 
      2 N9          3.5430    5.7100   48.7410 N.ar      1 APT902      0.0000 
      3 C9          4.1070    6.6180   49.5000 C.ar      1 APT902      0.0000 
      4 N3          3.7320    6.8830   50.7230 N.ar      1 APT902      0.0000 
      5 C10         4.3590    7.8180   51.4080 C.ar      1 APT902      0.0000 
      6 N2          3.9090    8.0110   52.5920 N.pl3     1 APT902      0.0000 
      7 N1          5.3880    8.5770   51.0310 N.ar      1 APT902      0.0000 
      8 C11         5.8530    8.4080   49.8100 C.ar      1 APT902      0.0000 
      9 O6          6.8940    9.2320   49.4900 O.3       1 APT902      0.0000 
     10 C12         5.2470    7.4050   48.9120 C.ar      1 APT902      0.0000 
     11 N7          5.6260    7.1560   47.6270 N.ar      1 APT902      0.0000 
     12 C13         4.9580    6.1990   46.9140 C.ar      1 APT902      0.0000 
     13 C14         3.9030    5.4720   47.5210 C.ar      1 APT902      0.0000 
     14 N4          5.7970    4.5520   45.1480 N.pl3     1 APT902      0.0000 
     15 C1          6.0170    2.1950   45.1010 C.ar      1 APT902      0.0000 
     16 C2          5.5740    0.9090   45.2440 C.ar      1 APT902      0.0000 
     17 C3          4.2970    0.6150   45.5920 C.ar      1 APT902      0.0000 
     18 C4          3.3980    1.6630   45.8170 C.ar      1 APT902      0.0000 
     19 C5          3.8380    2.9890   45.6790 C.ar      1 APT902      0.0000 
     20 C6          5.1840    3.2450   45.3120 C.ar      1 APT902      0.0000 
     21 C7          3.9330   -0.8010   45.7220 C.2       1 APT902      0.0000 
     22 O2          2.8190   -1.0730   46.0250 O.co2     1 APT902      0.0000 
     23 O3          4.7850   -1.7120   45.5090 O.co2     1 APT902      0.0000 
     24 H           6.0228    6.6605   45.0855 H         1 APT902      0.0000 
     25 H           4.3655    6.0859   44.8340 H         1 APT902      0.0000 
     26 H           3.1613    7.4134   52.8814 H         1 APT902      0.0000 
     27 H           4.3477    8.7412   53.1159 H         1 APT902      0.0000 
     28 H           3.4414    4.7414   46.9269 H         1 APT902      0.0000 
     29 H           6.8142    4.5226   44.7492 H         1 APT902      0.0000 
     30 H           7.0090    2.3658   44.8260 H         1 APT902      0.0000 
     31 H           6.2542    0.1209   45.0764 H         1 APT902      0.0000 
     32 H           2.4315    1.4679   46.0789 H         1 APT902      0.0000 
     33 H           3.2002    3.7663   45.8399 H         1 APT902      0.0000 
     34 H           7.3006    8.8287   48.6703 H         1 APT902      0.0000 
@<TRIPOS>BOND
     1   12    1 1    
     2   14    1 1    
     3   24    1 1    
     4   25    1 1    
     5    3    2 ar   
     6   13    2 ar   
     7    4    3 ar   
     8   10    3 ar   
     9    5    4 ar   
    10    6    5 1    
    11    7    5 ar   
    12   26    6 1    
    13   27    6 1    
    14    8    7 ar   
    15    9    8 1    
    16   10    8 ar   
    17   34    9 1    
    18   11   10 ar   
    19   12   11 ar   
    20   13   12 ar   
    21   28   13 1    
    22   20   14 1    
    23   29   14 1    
    24   16   15 ar   
    25   20   15 ar   
    26   30   15 1    
    27   17   16 ar   
    28   31   16 1    
    29   18   17 ar   
    30   21   17 1    
    31   19   18 ar   
    32   32   18 1    
    33   20   19 ar   
    34   33   19 1    
    35   22   21 ar   
    36   23   21 ar   
@<TRIPOS>SUBSTRUCTURE
     1 APT902      1 GROUP   
@<TRIPOS>SET

