#    Name: 2BME_4_CAVITY_N1_6.mol2
#    Modification time : Tue Mar 11 04:20:31 2014

@<TRIPOS>MOLECULE
2BME_4_CAVITY_N1_6.mol2
   74     0     7     0     0
SMALL
NO_CHARGES


@<TRIPOS>ATOM
      1 OD1        38.4227   26.1076    3.2843 O.3       3 ASP3        0.0000 
      2 CA         28.3901   29.5495    3.3020 C.3       6 GLY6        0.0000 
      3 N          29.3264   27.7052    2.8308 N.2       2 ALA2        0.0000 
      4 NZ         30.6679   34.1999    8.7274 N.2       4 LYS4        0.0000 
      5 CA         31.1647   33.0290    9.5225 C.3       6 GLY6        0.0000 
      6 CZ         31.1075   33.5266    7.4611 C.ar      5 PHE5        0.0000 
      7 CA         31.6042   32.3557    8.2562 C.3       6 GLY6        0.0000 
      8 CZ         31.5470   32.8532    6.1949 C.ar      5 PHE5        0.0000 
      9 CA         32.0438   31.6823    6.9900 C.3       6 GLY6        0.0000 
     10 CA         31.9866   32.1799    4.9286 C.3       6 GLY6        0.0000 
     11 CA         32.4834   31.0090    5.7237 C.3       6 GLY6        0.0000 
     12 CA         32.9801   29.8381    6.5188 C.3       6 GLY6        0.0000 
     13 CA         32.9230   30.3356    4.4575 C.3       6 GLY6        0.0000 
     14 CA         33.4197   29.1647    5.2526 C.3       6 GLY6        0.0000 
     15 N          33.9165   27.9938    6.0477 N.2       2 ALA2        0.0000 
     16 CA         33.8593   28.4914    3.9863 C.3       6 GLY6        0.0000 
     17 CA         34.3561   27.3205    4.7814 C.3       6 GLY6        0.0000 
     18 OG         34.2989   27.8180    2.7201 O.2       1 SER1        0.0000 
     19 CA         34.7956   26.6471    3.5152 C.3       6 GLY6        0.0000 
     20 CA         35.2924   25.4762    4.3103 C.3       6 GLY6        0.0000 
     21 OG         34.7384   27.1447    1.4539 O.2       1 SER1        0.0000 
     22 N          35.2352   25.9738    2.2490 N.2       2 ALA2        0.0000 
     23 O          35.7320   24.8029    3.0441 O.2       2 ALA2        0.0000 
     24 N          35.6748   25.3004    0.9827 N.2       2 ALA2        0.0000 
     25 CZ         29.7621   32.8742    7.3410 C.ar      5 PHE5        0.0000 
     26 CA         30.2589   31.7033    8.1361 C.3       6 GLY6        0.0000 
     27 CA         30.7556   30.5324    8.9312 C.3       6 GLY6        0.0000 
     28 CZ         30.6984   31.0300    6.8698 C.ar      5 PHE5        0.0000 
     29 CA         31.1952   29.8591    7.6649 C.3       6 GLY6        0.0000 
     30 CZ         31.1380   30.3566    5.6036 C.ar      5 PHE5        0.0000 
     31 CA         31.6348   29.1857    6.3987 C.3       6 GLY6        0.0000 
     32 CA         31.5776   29.6833    4.3374 C.3       6 GLY6        0.0000 
     33 DU         32.0744   28.5124    5.1325 H         7 CUB7        0.0000 
     34 N          32.5711   27.3415    5.9276 N.2       2 ALA2        0.0000 
     35 CA         32.0172   29.0099    3.0711 C.3       6 GLY6        0.0000 
     36 DU         32.5139   27.8390    3.8662 H         7 CUB7        0.0000 
     37 CA         33.0107   26.6681    4.6613 C.3       6 GLY6        0.0000 
     38 CA         33.5075   25.4972    5.4564 C.3       6 GLY6        0.0000 
     39 OG         32.9535   27.1657    2.6000 O.2       1 SER1        0.0000 
     40 DU         33.4503   25.9948    3.3951 H         7 CUB7        0.0000 
     41 CA         33.9470   24.8238    4.1902 C.3       6 GLY6        0.0000 
     42 CA         34.4438   23.6529    4.9853 C.3       6 GLY6        0.0000 
     43 OG         33.3931   26.4923    1.3337 O.2       1 SER1        0.0000 
     44 O          33.8898   25.3214    2.1288 O.2       2 ALA2        0.0000 
     45 O          34.3866   24.1505    2.9239 O.2       2 ALA2        0.0000 
     46 NZ         27.9772   32.8952    8.4871 N.2       4 LYS4        0.0000 
     47 CA         28.4739   31.7243    9.2822 C.3       6 GLY6        0.0000 
     48 CZ         28.4167   32.2219    7.2209 C.ar      5 PHE5        0.0000 
     49 DU         28.9135   31.0510    8.0160 H         7 CUB7        0.0000 
     50 CA         29.4103   29.8800    8.8111 C.3       6 GLY6        0.0000 
     51 CZ         29.3531   30.3776    6.7497 C.ar      5 PHE5        0.0000 
     52 OD1        29.8498   29.2067    7.5448 O.3       3 ASP3        0.0000 
     53 CZ         29.7927   29.7043    5.4835 C.ar      5 PHE5        0.0000 
     54 DU         30.2894   28.5334    6.2786 H         7 CUB7        0.0000 
     55 DU         30.2322   29.0309    4.2172 H         7 CUB7        0.0000 
     56 DU         30.7290   27.8600    5.0123 H         7 CUB7        0.0000 
     57 CA         30.6718   28.3576    2.9510 C.3       6 GLY6        0.0000 
     58 N          31.1686   27.1867    3.7461 N.2       2 ALA2        0.0000 
     59 DU         31.6653   26.0158    4.5412 H         7 CUB7        0.0000 
     60 N          32.1049   25.3424    3.2749 N.2       2 ALA2        0.0000 
     61 DU         32.6017   24.1715    4.0700 H         7 CUB7        0.0000 
     62 N          32.5445   24.6691    2.0087 N.2       2 ALA2        0.0000 
     63 OD1        36.5806   26.6261    2.3691 O.3       3 ASP3        0.0000 
     64 O          37.0773   25.4552    3.1642 O.2       2 ALA2        0.0000 
     65 OD1        37.5169   24.7819    1.8979 O.3       3 ASP3        0.0000 
     66 O          38.0137   23.6109    2.6930 O.2       2 ALA2        0.0000 
     67 O          33.3892   32.3347    7.1101 O.2       2 ALA2        0.0000 
     68 O          35.6442   28.4704    2.8402 O.2       2 ALA2        0.0000 
     69 O          36.1410   27.2995    3.6353 O.2       2 ALA2        0.0000 
     70 O          36.6378   26.1286    4.4304 O.2       2 ALA2        0.0000 
     71 O          33.0412   23.4981    2.8038 O.2       2 ALA2        0.0000 
     72 NZ         29.3225   33.5476    8.6072 N.2       4 LYS4        0.0000 
     73 CA         29.8193   32.3767    9.4023 C.3       6 GLY6        0.0000 
     74 CA         30.3161   31.2057   10.1974 C.3       6 GLY6        0.0000 
@<TRIPOS>BOND
@<TRIPOS>SUBSTRUCTURE
     1 SER1       18 GROUP   
     2 ALA2        3 GROUP   
     3 ASP3        1 GROUP   
     4 LYS4        4 GROUP   
     5 PHE5        6 GROUP   
     6 GLY6        2 GROUP   
     7 CUB7       33 GROUP   
@<TRIPOS>SET

