#    Name: 2bme_GNP_4_INTS_M
#    Modification time : Mon Mar 24 21:13:09 2014

@<TRIPOS>MOLECULE
2bme_GNP_4_INTS_M
   70     0    15     0     0
SMALL
NO_CHARGES


@<TRIPOS>ATOM
      1 Zn         38.3335   26.1940    0.8765 Zn        4 ZIC7        0.0000 
      2 Zn         38.4270   25.2070    1.1920 Zn       14 ZIL7        0.0000 
      3 Zn         38.2400   27.1810    0.5610 Zn        9 ZIP7        0.0000 
      4 N          37.9540   24.5455    0.0020 N.am      2 SEC2        0.0000 
      5 N          38.4270   25.2070    1.1920 N.am     12 SEL2        0.0000 
      6 N          37.4810   23.8840   -1.1880 N.am      7 SEP2        0.0000 
      7 NZ         40.2620   25.6045    4.0900 N.4       3 LYC4        0.0000 
      8 NZ         39.6560   24.7000    3.2550 N.4      13 LYL4        0.0000 
      9 NZ         40.8680   26.5090    4.9250 N.4       8 LYP4        0.0000 
     10 N          40.2620   25.6045    4.0900 N.am      2 SEC2        0.0000 
     11 N          39.6560   24.7000    3.2550 N.am     12 SEL2        0.0000 
     12 N          40.8680   26.5090    4.9250 N.am      7 SEP2        0.0000 
     13 N          40.8895   24.1095    3.0825 N.am      2 SEC2        0.0000 
     14 N          42.1230   23.5190    2.9100 N.am      7 SEP2        0.0000 
     15 NZ         39.5530   26.9670    4.8645 N.4       3 LYC4        0.0000 
     16 NZ         38.2380   27.4250    4.8040 N.4      13 LYL4        0.0000 
     17 N          37.6400   27.0945    6.2820 N.am      2 SEC2        0.0000 
     18 N          38.2380   27.4250    4.8040 N.am     12 SEL2        0.0000 
     19 N          37.0420   26.7640    7.7600 N.am      7 SEP2        0.0000 
     20 N          37.3815   28.3010    5.7975 N.am      2 SEC2        0.0000 
     21 N          36.5250   29.1770    6.7910 N.am      7 SEP2        0.0000 
     22 N          38.2710   28.9295    4.8310 N.am      2 SEC2        0.0000 
     23 N          38.3040   30.4340    4.8580 N.am      7 SEP2        0.0000 
     24 N          39.5530   26.9670    4.8645 N.am      2 SEC2        0.0000 
     25 Zn         37.9680   27.5100    1.4870 Zn        4 ZIC7        0.0000 
     26 Zn         37.6960   27.8390    2.4130 Zn       14 ZIL7        0.0000 
     27 N          37.8890   29.2835    2.2455 N.am      2 SEC2        0.0000 
     28 N          37.6960   27.8390    2.4130 N.am     12 SEL2        0.0000 
     29 N          38.0820   30.7280    2.0780 N.am      7 SEP2        0.0000 
     30 N          36.1895   28.3485    5.4225 N.am      2 SEC2        0.0000 
     31 N          35.8540   27.5200    4.0540 N.am     12 SEL2        0.0000 
     32 N          35.5230   30.9915    2.3635 N.am      2 SEC2        0.0000 
     33 N          35.2600   29.7300    2.9840 N.am     12 SEL2        0.0000 
     34 N          35.7860   32.2530    1.7430 N.am      7 SEP2        0.0000 
     35 N          33.7530   28.1390    1.0035 N.am      2 SEC2        0.0000 
     36 N          34.3640   27.5150    2.1210 N.am     12 SEL2        0.0000 
     37 N          33.1420   28.7630   -0.1140 N.am      7 SEP2        0.0000 
     38 CA         34.4485   26.0675    5.8790 C.3       5 GLC5        0.0000 
     39 CA         33.0900   27.2380    4.9650 C.3      15 GLL5        0.0000 
     40 CA         35.8070   24.8970    6.7930 C.3      10 GLP5        0.0000 
     41 CA         31.6410   30.6420    3.4410 C.3       5 GLC5        0.0000 
     42 CA         30.6440   29.4220    4.5160 C.3      15 GLL5        0.0000 
     43 CA         32.6380   31.8620    2.3660 C.3      10 GLP5        0.0000 
     44 CA         32.0420   29.4280    7.7925 C.3       5 GLC5        0.0000 
     45 CA         30.8410   29.6270    6.0140 C.3      15 GLL5        0.0000 
     46 CA         33.2430   29.2290    9.5710 C.3      10 GLP5        0.0000 
     47 N          34.4100   32.6605    7.6100 N.am      2 SEC2        0.0000 
     48 N          33.1250   32.4040    6.6970 N.am     12 SEL2        0.0000 
     49 N          35.6950   32.9170    8.5230 N.am      7 SEP2        0.0000 
     50 CA         32.6365   32.0625    9.1725 C.3       5 GLC5        0.0000 
     51 CA         32.0500   32.7070    7.5420 C.3      15 GLL5        0.0000 
     52 CA         33.2230   31.4180   10.8030 C.3      10 GLP5        0.0000 
     53 CA         33.0410   34.1260    6.5525 C.3       5 GLC5        0.0000 
     54 CA         34.0320   35.5450    5.5630 C.3      10 GLP5        0.0000 
     55 N          33.1955   35.8075    8.1485 N.am      2 SEC2        0.0000 
     56 N          32.5550   34.7290    8.7160 N.am     12 SEL2        0.0000 
     57 N          33.8360   36.8860    7.5810 N.am      7 SEP2        0.0000 
     58 N          31.9175   35.8865    7.6645 N.am      2 SEC2        0.0000 
     59 N          31.2800   37.0440    6.6130 N.am      7 SEP2        0.0000 
     60 O          30.3895   34.7335   10.0510 O.2       1 ALC1        0.0000 
     61 O          30.5410   33.7280    9.0630 O.2      11 ALL1        0.0000 
     62 O          30.2380   35.7390   11.0390 O.2       6 ALP1        0.0000 
     63 O          28.2415   33.9910   10.2690 O.2       1 ALC1        0.0000 
     64 O          28.4380   32.7450    9.4830 O.2      11 ALL1        0.0000 
     65 O          28.0450   35.2370   11.0550 O.2       6 ALP1        0.0000 
     66 CA         31.7955   30.9135    9.0190 C.3       5 GLC5        0.0000 
     67 CA         31.0370   31.7680    7.3710 C.3      15 GLL5        0.0000 
     68 CA         32.5540   30.0590   10.6670 C.3      10 GLP5        0.0000 
     69 CA         29.9552   31.4043    4.7860 C.3       5 GLC5        0.0000 
     70 CA         29.1680   33.2840    4.3070 C.3      10 GLP5        0.0000 
@<TRIPOS>BOND
@<TRIPOS>SUBSTRUCTURE
     1 ALC1       60 GROUP        1 X    ALC  0     ROOT ALC X 1
     2 SEC2        4 GROUP        1 X    SEC  0     **** SEC X 2
     3 LYC4        7 GROUP        1 X    LYC  0     **** LYC X 4
     4 ZIC7        1 GROUP        1 X    ZIC  0     **** ZIC X 5
     5 GLC5       38 GROUP        1 X    GLC  0     **** GLC X 6
     6 ALP1       62 GROUP        1 Y    ALP  0     ROOT ALP Y 8
     7 SEP2        6 GROUP        1 Y    SEP  0     **** SEP Y 9
     8 LYP4        9 GROUP        1 Y    LYP  0     **** LYP Y 11
     9 ZIP7        3 GROUP        1 Y    ZIP  0     **** ZIP Y 12
    10 GLP5       40 GROUP        1 Y    GLP  0     **** GLP Y 13
    11 ALL1       61 GROUP        1 Z    ALL  0     ROOT ALL Z 15
    12 SEL2        5 GROUP        1 Z    SEL  0     **** SEL Z 16
    13 LYL4        8 GROUP        1 Z    LYL  0     **** LYL Z 18
    14 ZIL7        2 GROUP        1 Z    ZIL  0     **** ZIL Z 19
    15 GLL5       39 GROUP        1 Z    GLL  0     **** GLL Z 20
@<TRIPOS>SET

