#    Name: 2bme_GNP_4_ligand
#    Modification time : Mon Mar 24 21:13:09 2014

@<TRIPOS>MOLECULE
2bme_GNP_4_ligand
   44    46     1     0     0
SMALL
NO_CHARGES


@<TRIPOS>ATOM
      1 PG         38.4090   24.6700    2.5430 P.3       1 GNP1179     0.0000 
      2 O1G        37.7700   23.2390    2.4240 O.co2     1 GNP1179     0.0000 
      3 O2G        38.4270   25.2070    1.1920 O.co2     1 GNP1179     0.0000 
      4 O3G        39.6560   24.7000    3.2550 O.co2     1 GNP1179     0.0000 
      5 N3B        37.2620   25.4910    3.3890 N.4       1 GNP1179     0.0000 
      6 PB         37.3400   27.1250    3.6660 P.3       1 GNP1179     0.0000 
      7 O1B        38.2380   27.4250    4.8040 O.co2     1 GNP1179     0.0000 
      8 O2B        37.6960   27.8390    2.4130 O.co2     1 GNP1179     0.0000 
      9 O3A        35.8540   27.5200    4.0540 O.3       1 GNP1179     0.0000 
     10 PA         34.7830   28.3550    3.2970 P.3       1 GNP1179     0.0000 
     11 O1A        35.2600   29.7300    2.9840 O.co2     1 GNP1179     0.0000 
     12 O2A        34.3640   27.5150    2.1210 O.co2     1 GNP1179     0.0000 
     13 O5'        33.5890   28.4690    4.3120 O.3       1 GNP1179     0.0000 
     14 C5'        33.0900   27.2380    4.9650 C.3       1 GNP1179     0.0000 
     15 C4'        31.7050   27.5130    5.4770 C.3       1 GNP1179     0.0000 
     16 O4'        31.7290   28.6110    6.4450 O.3       1 GNP1179     0.0000 
     17 C3'        30.6630   27.8790    4.4460 C.3       1 GNP1179     0.0000 
     18 O3'        29.4360   27.2960    4.9010 O.3       1 GNP1179     0.0000 
     19 C2'        30.6440   29.4220    4.5160 C.3       1 GNP1179     0.0000 
     20 O2'        29.3860   29.9490    4.1820 O.3       1 GNP1179     0.0000 
     21 C1'        30.8410   29.6270    6.0140 C.3       1 GNP1179     0.0000 
     22 N9         31.5160   30.8570    6.4890 N.pl3     1 GNP1179     0.0000 
     23 C8         32.7760   31.2740    6.0910 C.2       1 GNP1179     0.0000 
     24 N7         33.1250   32.4040    6.6970 N.2       1 GNP1179     0.0000 
     25 C5         32.0500   32.7070    7.5420 C.2       1 GNP1179     0.0000 
     26 C6         31.7850   33.7950    8.4130 C.2       1 GNP1179     0.0000 
     27 O6         32.5550   34.7290    8.7160 O.2       1 GNP1179     0.0000 
     28 N1         30.5410   33.7280    9.0630 N.am      1 GNP1179     0.0000 
     29 C2         29.6240   32.7190    8.8370 C.2       1 GNP1179     0.0000 
     30 N2         28.4380   32.7450    9.4830 N.pl3     1 GNP1179     0.0000 
     31 N3         29.8420   31.7250    7.9810 N.2       1 GNP1179     0.0000 
     32 C4         31.0370   31.7680    7.3710 C.2       1 GNP1179     0.0000 
     33 H          33.7335   26.9651    5.7951 H         1 GNP1179     0.0000 
     34 H          33.0548   26.4213    4.2513 H         1 GNP1179     0.0000 
     35 H          31.3401   26.6167    6.0107 H         1 GNP1179     0.0000 
     36 H          30.9784   27.5699    3.5127 H         1 GNP1179     0.0000 
     37 H          31.4590   29.7997    4.0160 H         1 GNP1179     0.0000 
     38 H          29.9007   29.5024    6.5241 H         1 GNP1179     0.0000 
     39 H          33.3180   30.7758    5.4414 H         1 GNP1179     0.0000 
     40 H          30.3060   34.4847    9.7511 H         1 GNP1179     0.0000 
     41 H          28.3089   33.4913   10.1360 H         1 GNP1179     0.0000 
     42 H          27.7944   32.0157    9.2509 H         1 GNP1179     0.0000 
     43 H          28.7798   28.0505    4.9129 H         1 GNP1179     0.0000 
     44 H          29.3755   29.9798    3.1825 H         1 GNP1179     0.0000 
@<TRIPOS>BOND
     1    2    1 ar   
     2    3    1 ar   
     3    4    1 ar   
     4    5    1 1    
     5    6    5 1    
     6    7    6 ar   
     7    8    6 ar   
     8    9    6 1    
     9   10    9 1    
    10   11   10 ar   
    11   12   10 ar   
    12   13   10 1    
    13   14   13 1    
    14   15   14 1    
    15   33   14 1    
    16   34   14 1    
    17   16   15 1    
    18   17   15 1    
    19   35   15 1    
    20   21   16 1    
    21   18   17 1    
    22   19   17 1    
    23   36   17 1    
    24   43   18 1    
    25   20   19 1    
    26   21   19 1    
    27   37   19 1    
    28   44   20 1    
    29   22   21 1    
    30   38   21 1    
    31   23   22 1    
    32   32   22 1    
    33   24   23 2    
    34   39   23 1    
    35   25   24 1    
    36   26   25 1    
    37   32   25 2    
    38   27   26 2    
    39   28   26 am   
    40   29   28 1    
    41   40   28 1    
    42   30   29 1    
    43   31   29 2    
    44   41   30 1    
    45   42   30 1    
    46   32   31 1    
@<TRIPOS>SUBSTRUCTURE
     1 GNP1179     1 GROUP   
@<TRIPOS>SET

