#    Name: 1xh7_R96_1_INTS_M
#    Modification time : Tue Mar 25 09:51:49 2014

@<TRIPOS>MOLECULE
1xh7_R96_1_INTS_M
  114     0    12     0     0
SMALL
NO_CHARGES


@<TRIPOS>ATOM
      1 CA          4.5450   10.3100    0.7825 C.3       4 GLC5        0.0000 
      2 CA          4.6640    9.6220    2.7130 C.3      12 GLL5        0.0000 
      3 CA          4.4260   10.9980   -1.1480 C.3       8 GLP5        0.0000 
      4 CA          1.5400   10.4550    3.8500 C.3       4 GLC5        0.0000 
      5 CA          3.4280    9.7470    3.3420 C.3      12 GLL5        0.0000 
      6 CA         -0.3480   11.1630    4.3580 C.3       8 GLP5        0.0000 
      7 CA          2.1215    8.2990    3.3360 C.3       4 GLC5        0.0000 
      8 CA          0.8150    6.8510    3.3300 C.3       8 GLP5        0.0000 
      9 N           1.8765    9.3640    4.9325 N.am      2 SEC2        0.0000 
     10 N           3.3400    9.7130    4.6700 N.am     10 SEL2        0.0000 
     11 N           0.4130    9.0150    5.1950 N.am      6 SEP2        0.0000 
     12 CA          3.8020   11.2930    4.2305 C.3       4 GLC5        0.0000 
     13 CA          4.4130    9.5140    5.4430 C.3      12 GLL5        0.0000 
     14 CA          3.1910   13.0720    3.0180 C.3       8 GLP5        0.0000 
     15 O           8.4370    9.1230    5.2190 O.2       1 ALC1        0.0000 
     16 O           8.2530    9.1150    3.5910 O.2       9 ALL1        0.0000 
     17 O           8.6210    9.1310    6.8470 O.2       5 ALP1        0.0000 
     18 CA          9.4495    6.4005    5.4225 C.3       4 GLC5        0.0000 
     19 CA          9.8560    7.3430    3.4360 C.3      12 GLL5        0.0000 
     20 CA          9.0430    5.4580    7.4090 C.3       8 GLP5        0.0000 
     21 CA          8.1810    6.3965    3.8055 C.3       4 GLC5        0.0000 
     22 CA          6.5060    5.4500    4.1750 C.3       8 GLP5        0.0000 
     23 OD1        11.2985    7.4470    1.7340 O.co2     3 ASC3        0.0000 
     24 OD1        11.1320    6.8610    2.8810 O.co2    11 ASL3        0.0000 
     25 OD1        11.4650    8.0330    0.5870 O.co2     7 ASP3        0.0000 
     26 CA         12.9950    5.2335    4.3130 C.3       4 GLC5        0.0000 
     27 CA         12.2370    7.0400    3.8210 C.3      12 GLL5        0.0000 
     28 CA         13.7530    3.4270    4.8050 C.3       8 GLP5        0.0000 
     29 CA          9.7405   11.6130    2.4740 C.3       4 GLC5        0.0000 
     30 CA         10.6270    9.8850    3.3410 C.3      12 GLL5        0.0000 
     31 CA          8.8540   13.3410    1.6070 C.3       8 GLP5        0.0000 
     32 O          10.7915    9.8615    0.5500 O.2       1 ALC1        0.0000 
     33 O          11.1130   10.5010    2.0760 O.2       9 ALL1        0.0000 
     34 O          10.4700    9.2220   -0.9760 O.2       5 ALP1        0.0000 
     35 O          11.2890    9.2670    1.3315 O.2       1 ALC1        0.0000 
     36 O          11.4650    8.0330    0.5870 O.2       5 ALP1        0.0000 
     37 CA         13.7345   13.6140    2.7010 C.3       4 GLC5        0.0000 
     38 CA         12.9490   13.4010    0.7040 C.3      12 GLL5        0.0000 
     39 CA         14.5200   13.8270    4.6980 C.3       8 GLP5        0.0000 
     40 CA         14.2785   15.8535    0.0175 C.3       4 GLC5        0.0000 
     41 CA         13.7650   13.7430   -0.3730 C.3      12 GLL5        0.0000 
     42 CA         14.7920   17.9640    0.4080 C.3       8 GLP5        0.0000 
     43 N          16.9675   15.0565   -1.8220 N.am      2 SEC2        0.0000 
     44 N          15.8390   14.0520   -2.2330 N.am     10 SEL2        0.0000 
     45 N          18.0960   16.0610   -1.4110 N.am      6 SEP2        0.0000 
     46 N          12.1060   11.7300   -3.7150 N.am      2 SEC2        0.0000 
     47 N          13.1080   12.2590   -4.5980 N.am     10 SEL2        0.0000 
     48 N          11.1040   11.2010   -2.8320 N.am      6 SEP2        0.0000 
     49 O          12.3285   11.9125   -5.5585 O.2       1 ALC1        0.0000 
     50 O          13.1080   12.2590   -4.5980 O.2       9 ALL1        0.0000 
     51 O          11.5490   11.5660   -6.5190 O.2       5 ALP1        0.0000 
     52 CA         18.3995   11.9300   -5.8270 C.3       4 GLC5        0.0000 
     53 CA         18.8920    9.9130   -6.0970 C.3      12 GLL5        0.0000 
     54 CA         17.9070   13.9470   -5.5570 C.3       8 GLP5        0.0000 
     55 CA         21.4045    8.8160   -7.7025 C.3       4 GLC5        0.0000 
     56 CA         20.4130    9.6220   -6.2180 C.3      12 GLL5        0.0000 
     57 CA         22.3960    8.0100   -9.1870 C.3       8 GLP5        0.0000 
     58 CA         20.2725   12.2450   -5.4435 C.3       4 GLC5        0.0000 
     59 CA         21.2940   10.3330   -5.1880 C.3      12 GLL5        0.0000 
     60 CA         19.2510   14.1570   -5.6990 C.3       8 GLP5        0.0000 
     61 CA         22.7705    9.2205   -6.2655 C.3       4 GLC5        0.0000 
     62 CA         24.2470    8.1080   -7.3430 C.3       8 GLP5        0.0000 
     63 CA         21.1210   12.3830   -2.0670 C.3       4 GLC5        0.0000 
     64 CA         21.7940   10.6660   -2.8030 C.3      12 GLL5        0.0000 
     65 CA         20.4480   14.1000   -1.3310 C.3       8 GLP5        0.0000 
     66 CA         22.4895   12.5440   -3.6585 C.3       4 GLC5        0.0000 
     67 CA         23.1850   14.4220   -4.5140 C.3       8 GLP5        0.0000 
     68 CA         19.7965    7.5375   -4.7105 C.3       4 GLC5        0.0000 
     69 CA         20.6980    8.5480   -3.4320 C.3      12 GLL5        0.0000 
     70 CA         18.8950    6.5270   -5.9890 C.3       8 GLP5        0.0000 
     71 CA         20.2760    6.8180   -3.0380 C.3       4 GLC5        0.0000 
     72 CA         19.8540    5.0880   -2.6440 C.3       8 GLP5        0.0000 
     73 CA         19.8955   12.3670   -2.4855 C.3       4 GLC5        0.0000 
     74 CA         19.3430   10.6340   -3.6400 C.3      12 GLL5        0.0000 
     75 CA         19.2970   12.3955   -4.6695 C.3       4 GLC5        0.0000 
     76 CA          5.1880    7.6593    3.8795 C.3       4 GLC5        0.0000 
     77 CA          5.8160    9.4150    3.4710 C.3      12 GLL5        0.0000 
     78 CA          5.1360    5.8000    4.6670 C.3       8 GLP5        0.0000 
     79 CA          5.4285    7.8412    1.9925 C.3       4 GLC5        0.0000 
     80 CA          5.6170    6.1640    0.8930 C.3       8 GLP5        0.0000 
     81 CA          3.6185   11.3782    3.0227 C.3       4 GLC5        0.0000 
     82 CA          4.8980   11.3268    5.9403 C.3       4 GLC5        0.0000 
     83 CA          4.7570   13.2170    6.7270 C.3       8 GLP5        0.0000 
     84 CA          5.1355    7.8662    5.6263 C.3       4 GLC5        0.0000 
     85 CA          5.2320    6.2960    6.0990 C.3       8 GLP5        0.0000 
     86 CA          6.1883   11.3884    3.6060 C.3       4 GLC5        0.0000 
     87 CA          5.6650    9.3590    4.8640 C.3      12 GLL5        0.0000 
     88 CA          6.9240   13.3380    3.2340 C.3       8 GLP5        0.0000 
     89 CA         11.3610   11.1285    5.2592 C.3       4 GLC5        0.0000 
     90 CA         11.5090   12.5650    6.6990 C.3       8 GLP5        0.0000 
     91 CA         14.7790   12.9313    1.2828 C.3       4 GLC5        0.0000 
     92 CA         12.6450   12.0500    0.9570 C.3      12 GLL5        0.0000 
     93 CA         16.7610   13.1370    1.7350 C.3       8 GLP5        0.0000 
     94 CA         10.8255   13.0332    1.2188 C.3       4 GLC5        0.0000 
     95 CA         11.5050   12.4678   -0.6613 C.3       4 GLC5        0.0000 
     96 CA         10.2130   12.2100   -2.1530 C.3       8 GLP5        0.0000 
     97 CA         12.7645   15.0705    1.4522 C.3       4 GLC5        0.0000 
     98 CA         12.1720   16.5690    2.7390 C.3       8 GLP5        0.0000 
     99 CA         15.3840   13.1837    0.4733 C.3       4 GLC5        0.0000 
    100 CA         12.1100   12.7203   -1.4708 C.3       4 GLC5        0.0000 
    101 CA         13.5350   14.6107   -2.0697 C.3       4 GLC5        0.0000 
    102 CA         14.2490   12.7180   -1.2040 C.3      12 GLL5        0.0000 
    103 CA         13.0630   15.9910   -3.3510 C.3       8 GLP5        0.0000 
    104 CA         15.1540   12.1735    0.6685 C.3       4 GLC5        0.0000 
    105 CA         13.9490   11.3800   -0.9360 C.3      12 GLL5        0.0000 
    106 CA         11.8800   11.7100   -1.2755 C.3       4 GLC5        0.0000 
    107 CA         13.9653   14.0135   -3.6940 C.3       4 GLC5        0.0000 
    108 CA         15.3260   12.1950   -3.5210 C.3      12 GLL5        0.0000 
    109 CA         14.3422    9.5783   -6.4067 C.3       4 GLC5        0.0000 
    110 CA         14.8050   11.0920   -5.6290 C.3      12 GLL5        0.0000 
    111 CA         13.2300    8.3170   -7.1460 C.3       8 GLP5        0.0000 
    112 CA         19.2737    8.1472   -6.0732 C.3       4 GLC5        0.0000 
    113 CA         20.3916   11.2581   -7.1029 C.3       4 GLC5        0.0000 
    114 CA         20.3100   12.4660   -8.5330 C.3       8 GLP5        0.0000 
@<TRIPOS>BOND
@<TRIPOS>SUBSTRUCTURE
     1 ALC1       15 GROUP        1 X    ALC  0     ROOT ALC X 1
     2 SEC2        9 GROUP        1 X    SEC  0     **** SEC X 2
     3 ASC3       23 GROUP        1 X    ASC  0     **** ASC X 3
     4 GLC5        1 GROUP        1 X    GLC  0     **** GLC X 6
     5 ALP1       17 GROUP        1 Y    ALP  0     ROOT ALP Y 8
     6 SEP2       11 GROUP        1 Y    SEP  0     **** SEP Y 9
     7 ASP3       25 GROUP        1 Y    ASP  0     **** ASP Y 10
     8 GLP5        3 GROUP        1 Y    GLP  0     **** GLP Y 13
     9 ALL1       16 GROUP        1 Z    ALL  0     ROOT ALL Z 15
    10 SEL2       10 GROUP        1 Z    SEL  0     **** SEL Z 16
    11 ASL3       24 GROUP        1 Z    ASL  0     **** ASL Z 17
    12 GLL5        2 GROUP        1 Z    GLL  0     **** GLL Z 20
@<TRIPOS>SET

