#    Name: 1xh7_R96_1_ligand
#    Modification time : Tue Mar 25 09:51:49 2014

@<TRIPOS>MOLECULE
1xh7_R96_1_ligand
   80    84     1     0     0
SMALL
NO_CHARGES


@<TRIPOS>ATOM
      1 O22         7.2550    9.2200    1.5990 O.2       1 R96351      0.0000 
      2 C21         7.1140    9.2490    2.8150 C.2       1 R96351      0.0000 
      3 C14         5.8160    9.4150    3.4710 C.ar      1 R96351      0.0000 
      4 C13         4.6640    9.6220    2.7130 C.ar      1 R96351      0.0000 
      5 C12         3.4280    9.7470    3.3420 C.ar      1 R96351      0.0000 
      6 N11         3.3400    9.7130    4.6700 N.ar      1 R96351      0.0000 
      7 C16         4.4130    9.5140    5.4430 C.ar      1 R96351      0.0000 
      8 C15         5.6650    9.3590    4.8640 C.ar      1 R96351      0.0000 
      9 N23         8.2530    9.1150    3.5910 N.am      1 R96351      0.0000 
     10 C31         9.5620    8.7770    2.9980 C.3       1 R96351      0.0000 
     11 C32         9.8560    7.3430    3.4360 C.3       1 R96351      0.0000 
     12 N33        11.1320    6.8610    2.8810 N.4       1 R96351      0.0000 
     13 C34        12.2370    7.0400    3.8210 C.3       1 R96351      0.0000 
     14 C35        12.8030    8.4720    3.7340 C.3       1 R96351      0.0000 
     15 C36        11.7990    9.4990    4.2980 C.3       1 R96351      0.0000 
     16 C37        10.6270    9.8850    3.3410 C.3       1 R96351      0.0000 
     17 N41        11.1130   10.5010    2.0760 N.am      1 R96351      0.0000 
     18 C42        11.8290   11.6940    2.0960 C.2       1 R96351      0.0000 
     19 O43        11.7920   12.4130    3.0990 O.2       1 R96351      0.0000 
     20 C51        12.6450   12.0500    0.9570 C.ar      1 R96351      0.0000 
     21 C52        12.9490   13.4010    0.7040 C.ar      1 R96351      0.0000 
     22 C53        13.7650   13.7430   -0.3730 C.ar      1 R96351      0.0000 
     23 C56        13.1450   11.0400    0.1400 C.ar      1 R96351      0.0000 
     24 C55        13.9490   11.3800   -0.9360 C.ar      1 R96351      0.0000 
     25 C54        14.2490   12.7180   -1.2040 C.ar      1 R96351      0.0000 
     26 C61        15.1220   13.0330   -2.3330 C.2       1 R96351      0.0000 
     27 O62        15.8390   14.0520   -2.2330 O.2       1 R96351      0.0000 
     28 C71        15.3260   12.1950   -3.5210 C.ar      1 R96351      0.0000 
     29 C72        14.4090   11.8770   -4.5530 C.ar      1 R96351      0.0000 
     30 O92        13.1080   12.2590   -4.5980 O.3       1 R96351      0.0000 
     31 C73        14.8050   11.0920   -5.6290 C.ar      1 R96351      0.0000 
     32 C74        16.1040   10.5870   -5.7060 C.ar      1 R96351      0.0000 
     33 C76        16.6270   11.6820   -3.6080 C.ar      1 R96351      0.0000 
     34 C75        17.0360   10.8890   -4.6980 C.ar      1 R96351      0.0000 
     35 N91        18.3840   10.3860   -4.7750 N.3       1 R96351      0.0000 
     36 C92        18.8920    9.9130   -6.0970 C.3       1 R96351      0.0000 
     37 C93        20.4130    9.6220   -6.2180 C.3       1 R96351      0.0000 
     38 C94        21.2940   10.3330   -5.1880 C.3       1 R96351      0.0000 
     39 C95        20.7660   10.0420   -3.7800 C.3       1 R96351      0.0000 
     40 C97        21.7940   10.6660   -2.8030 C.3       1 R96351      0.0000 
     41 C98        20.6980    8.5480   -3.4320 C.3       1 R96351      0.0000 
     42 C96        19.3430   10.6340   -3.6400 C.3       1 R96351      0.0000 
     43 H           4.7282    9.6822    1.6890 H         1 R96351      0.0000 
     44 H           2.5828    9.8668    2.7456 H         1 R96351      0.0000 
     45 H           4.3337    9.4719    6.4766 H         1 R96351      0.0000 
     46 H           6.4928    9.2015    5.4563 H         1 R96351      0.0000 
     47 H           8.2267    9.2467    4.6107 H         1 R96351      0.0000 
     48 H           9.4305    8.7709    1.9023 H         1 R96351      0.0000 
     49 H           9.0268    6.7045    3.1047 H         1 R96351      0.0000 
     50 H           9.8789    7.3155    4.5332 H         1 R96351      0.0000 
     51 H          13.0534    6.3428    3.6064 H         1 R96351      0.0000 
     52 H          11.9086    6.8709    4.8516 H         1 R96351      0.0000 
     53 H          13.0099    8.7107    2.6947 H         1 R96351      0.0000 
     54 H          13.7254    8.5257    4.3052 H         1 R96351      0.0000 
     55 H          12.3426   10.4210    4.5669 H         1 R96351      0.0000 
     56 H          11.3653    9.1006    5.2313 H         1 R96351      0.0000 
     57 H          10.0404   10.6986    3.8745 H         1 R96351      0.0000 
     58 H          10.8979   10.0122    1.2096 H         1 R96351      0.0000 
     59 H          12.5669   14.1294    1.3160 H         1 R96351      0.0000 
     60 H          14.0080   14.7118   -0.5581 H         1 R96351      0.0000 
     61 H          12.9204   10.0614    0.3337 H         1 R96351      0.0000 
     62 H          14.3320   10.6424   -1.5478 H         1 R96351      0.0000 
     63 H          14.1316   10.8779   -6.3829 H         1 R96351      0.0000 
     64 H          16.3825    9.9958   -6.4954 H         1 R96351      0.0000 
     65 H          17.3060   11.8888   -2.8551 H         1 R96351      0.0000 
     66 H          18.6314   10.6596   -6.8895 H         1 R96351      0.0000 
     67 H          18.3494    8.9809   -6.3973 H         1 R96351      0.0000 
     68 H          20.7400    9.9085   -7.2333 H         1 R96351      0.0000 
     69 H          20.5642    8.5313   -6.1322 H         1 R96351      0.0000 
     70 H          21.2673   11.3996   -5.3675 H         1 R96351      0.0000 
     71 H          22.3097    9.9698   -5.2721 H         1 R96351      0.0000 
     72 H          18.9031   10.2412   -2.6920 H         1 R96351      0.0000 
     73 H          19.4467   11.7337   -3.4775 H         1 R96351      0.0000 
     74 H          22.7039   10.2670   -2.9166 H         1 R96351      0.0000 
     75 H          21.8869   11.6520   -2.9415 H         1 R96351      0.0000 
     76 H          21.5304   10.5277   -1.8483 H         1 R96351      0.0000 
     77 H          21.5972    8.1134   -3.4834 H         1 R96351      0.0000 
     78 H          20.3524    8.3978   -2.5057 H         1 R96351      0.0000 
     79 H          20.0951    8.0488   -4.0544 H         1 R96351      0.0000 
     80 H          12.7387   11.8234   -5.4189 H         1 R96351      0.0000 
@<TRIPOS>BOND
     1    2    1 2    
     2    3    2 1    
     3    9    2 am   
     4    4    3 ar   
     5    8    3 ar   
     6    5    4 ar   
     7   43    4 1    
     8    6    5 ar   
     9   44    5 1    
    10    7    6 ar   
    11    8    7 ar   
    12   45    7 1    
    13   46    8 1    
    14   10    9 1    
    15   47    9 1    
    16   11   10 1    
    17   16   10 1    
    18   48   10 1    
    19   12   11 1    
    20   49   11 1    
    21   50   11 1    
    22   13   12 1    
    23   14   13 1    
    24   51   13 1    
    25   52   13 1    
    26   15   14 1    
    27   53   14 1    
    28   54   14 1    
    29   16   15 1    
    30   55   15 1    
    31   56   15 1    
    32   17   16 1    
    33   57   16 1    
    34   18   17 am   
    35   58   17 1    
    36   19   18 2    
    37   20   18 1    
    38   21   20 ar   
    39   23   20 ar   
    40   22   21 ar   
    41   59   21 1    
    42   25   22 ar   
    43   60   22 1    
    44   24   23 ar   
    45   61   23 1    
    46   25   24 ar   
    47   62   24 1    
    48   26   25 1    
    49   27   26 2    
    50   28   26 1    
    51   29   28 ar   
    52   33   28 ar   
    53   30   29 1    
    54   31   29 ar   
    55   80   30 1    
    56   32   31 ar   
    57   63   31 1    
    58   34   32 ar   
    59   64   32 1    
    60   34   33 ar   
    61   65   33 1    
    62   35   34 1    
    63   36   35 1    
    64   42   35 1    
    65   37   36 1    
    66   66   36 1    
    67   67   36 1    
    68   38   37 1    
    69   68   37 1    
    70   69   37 1    
    71   39   38 1    
    72   70   38 1    
    73   71   38 1    
    74   40   39 1    
    75   41   39 1    
    76   42   39 1    
    77   74   40 1    
    78   75   40 1    
    79   76   40 1    
    80   77   41 1    
    81   78   41 1    
    82   79   41 1    
    83   72   42 1    
    84   73   42 1    
@<TRIPOS>SUBSTRUCTURE
     1 R96351      1 GROUP   
@<TRIPOS>SET

