#    Name: 4c2u_ANP_1_INTS_M
#    Modification time : Tue Mar 25 08:39:09 2014

@<TRIPOS>MOLECULE
4c2u_ANP_1_INTS_M
   70     0    15     0     0
SMALL
NO_CHARGES


@<TRIPOS>ATOM
      1 CA         22.1595   65.9125  -87.2875 C.3       5 GLC5        0.0000 
      2 CA         24.0950   66.8980  -87.0590 C.3      15 GLL5        0.0000 
      3 CA         20.2240   64.9270  -87.5160 C.3      10 GLP5        0.0000 
      4 Zn         24.6340   55.8195  -84.3980 Zn        4 ZIC7        0.0000 
      5 Zn         25.4780   55.6360  -83.8280 Zn       14 ZIL7        0.0000 
      6 Zn         23.7900   56.0030  -84.9680 Zn        9 ZIP7        0.0000 
      7 NZ         27.2870   57.6720  -81.0845 N.4       3 LYC4        0.0000 
      8 NZ         26.6990   56.5460  -81.8140 N.4      13 LYL4        0.0000 
      9 NZ         26.7680   59.4890  -80.4490 N.4       8 LYP4        0.0000 
     10 NZ         27.8195   56.1400  -80.8315 N.4       3 LYC4        0.0000 
     11 NZ         28.0660   55.7480  -78.8610 N.4       8 LYP4        0.0000 
     12 N          27.2870   57.6720  -81.0845 N.am      2 SEC2        0.0000 
     13 N          26.6990   56.5460  -81.8140 N.am     12 SEL2        0.0000 
     14 N          27.8750   58.7980  -80.3550 N.am      7 SEP2        0.0000 
     15 N          26.2090   57.7430  -81.4245 N.am      2 SEC2        0.0000 
     16 N          25.7190   58.9400  -81.0350 N.am      7 SEP2        0.0000 
     17 N          26.7295   56.1845  -80.4915 N.am      2 SEC2        0.0000 
     18 N          26.7600   55.8230  -79.1690 N.am      7 SEP2        0.0000 
     19 N          27.8195   56.1400  -80.8315 N.am      2 SEC2        0.0000 
     20 N          28.9400   55.7340  -79.8490 N.am      7 SEP2        0.0000 
     21 O          23.5000   63.3570  -80.2350 O.2       1 ALC1        0.0000 
     22 O          22.8700   64.4470  -81.0460 O.2      11 ALL1        0.0000 
     23 O          24.1300   62.2670  -79.4240 O.2       6 ALP1        0.0000 
     24 O          22.5890   63.9080  -79.9060 O.2       1 ALC1        0.0000 
     25 O          22.3080   63.3690  -78.7660 O.2       6 ALP1        0.0000 
     26 CA         26.8085   61.4835  -83.3130 C.3       5 GLC5        0.0000 
     27 CA         24.9680   62.1540  -83.1540 C.3      15 GLL5        0.0000 
     28 CA         28.6490   60.8130  -83.4720 C.3      10 GLP5        0.0000 
     29 N          25.6975   60.7490  -86.0845 N.am      2 SEC2        0.0000 
     30 N          25.1840   59.9340  -85.0300 N.am     12 SEL2        0.0000 
     31 N          26.2110   61.5640  -87.1390 N.am      7 SEP2        0.0000 
     32 N          21.6895   60.3825  -86.7285 N.am      2 SEC2        0.0000 
     33 N          22.6730   60.5990  -85.7350 N.am     12 SEL2        0.0000 
     34 N          20.7060   60.1660  -87.7220 N.am      7 SEP2        0.0000 
     35 N          24.4380   59.4630  -82.0600 N.am      2 SEC2        0.0000 
     36 N          23.1570   59.9860  -83.0850 N.am     12 SEL2        0.0000 
     37 NZ         27.9930   56.2635  -85.5095 N.4       3 LYC4        0.0000 
     38 NZ         27.9350   56.3140  -84.1770 N.4      13 LYL4        0.0000 
     39 NZ         28.0510   56.2130  -86.8420 N.4       8 LYP4        0.0000 
     40 N          28.5485   57.8945  -83.9345 N.am      2 SEC2        0.0000 
     41 N          27.9350   56.3140  -84.1770 N.am     12 SEL2        0.0000 
     42 N          29.1620   59.4750  -83.6920 N.am      7 SEP2        0.0000 
     43 N          27.9930   56.2635  -85.5095 N.am      2 SEC2        0.0000 
     44 N          28.0510   56.2130  -86.8420 N.am      7 SEP2        0.0000 
     45 N          29.0055   55.4690  -84.0415 N.am      2 SEC2        0.0000 
     46 N          30.0760   54.6240  -83.9060 N.am      7 SEP2        0.0000 
     47 Zn         23.9015   56.9215  -85.3680 Zn        4 ZIC7        0.0000 
     48 Zn         24.0130   57.8400  -85.7680 Zn       14 ZIL7        0.0000 
     49 N          23.2170   57.8940  -86.8675 N.am      2 SEC2        0.0000 
     50 N          24.0130   57.8400  -85.7680 N.am     12 SEL2        0.0000 
     51 N          22.4210   57.9480  -87.9670 N.am      7 SEP2        0.0000 
     52 NZ         27.2955   57.3385  -86.6470 N.4       3 LYC4        0.0000 
     53 NZ         26.5400   58.4640  -86.4520 N.4      13 LYL4        0.0000 
     54 N          25.6950   58.9130  -87.5150 N.am      2 SEC2        0.0000 
     55 N          26.5400   58.4640  -86.4520 N.am     12 SEL2        0.0000 
     56 N          24.8500   59.3620  -88.5780 N.am      7 SEP2        0.0000 
     57 N          27.2955   57.3385  -86.6470 N.am      2 SEC2        0.0000 
     58 CA         25.6275   66.0665  -84.2500 C.3       5 GLC5        0.0000 
     59 CA         24.0220   65.3370  -83.7420 C.3      15 GLL5        0.0000 
     60 CA         27.2330   66.7960  -84.7580 C.3      10 GLP5        0.0000 
     61 N          24.8910   65.1070  -88.8280 N.am      2 SEC2        0.0000 
     62 N          24.4970   65.6240  -87.3950 N.am     12 SEL2        0.0000 
     63 N          25.2850   64.5900  -90.2610 N.am      7 SEP2        0.0000 
     64 O          24.3380   67.2435  -90.3630 O.2       1 ALC1        0.0000 
     65 O          24.1110   68.1590  -89.2180 O.2      11 ALL1        0.0000 
     66 O          24.5650   66.3280  -91.5080 O.2       6 ALP1        0.0000 
     67 CA         25.6013   66.8508  -85.5418 C.3       5 GLC5        0.0000 
     68 CA         26.4517   63.1150  -81.7047 C.3       5 GLC5        0.0000 
     69 CA         24.6770   63.4980  -82.4570 C.3      15 GLL5        0.0000 
     70 CA         28.0810   63.4040  -80.6040 C.3      10 GLP5        0.0000 
@<TRIPOS>BOND
@<TRIPOS>SUBSTRUCTURE
     1 ALC1       21 GROUP        1 X    ALC  0     ROOT ALC X 1
     2 SEC2       12 GROUP        1 X    SEC  0     **** SEC X 2
     3 LYC4        7 GROUP        1 X    LYC  0     **** LYC X 4
     4 ZIC7        4 GROUP        1 X    ZIC  0     **** ZIC X 5
     5 GLC5        1 GROUP        1 X    GLC  0     **** GLC X 6
     6 ALP1       23 GROUP        1 Y    ALP  0     ROOT ALP Y 8
     7 SEP2       14 GROUP        1 Y    SEP  0     **** SEP Y 9
     8 LYP4        9 GROUP        1 Y    LYP  0     **** LYP Y 11
     9 ZIP7        6 GROUP        1 Y    ZIP  0     **** ZIP Y 12
    10 GLP5        3 GROUP        1 Y    GLP  0     **** GLP Y 13
    11 ALL1       22 GROUP        1 Z    ALL  0     ROOT ALL Z 15
    12 SEL2       13 GROUP        1 Z    SEL  0     **** SEL Z 16
    13 LYL4        8 GROUP        1 Z    LYL  0     **** LYL Z 18
    14 ZIL7        5 GROUP        1 Z    ZIL  0     **** ZIL Z 19
    15 GLL5        2 GROUP        1 Z    GLL  0     **** GLL Z 20
@<TRIPOS>SET

