#    Name: 4c2u_ANP_1_ligand
#    Modification time : Tue Mar 25 08:39:09 2014

@<TRIPOS>MOLECULE
4c2u_ANP_1_ligand
   43    45     1     0     0
SMALL
NO_CHARGES


@<TRIPOS>ATOM
      1 C2         23.2890   69.1900  -85.7690 C.ar      1 ANP1665     0.0000 
      2 C4         23.8440   66.9130  -85.5920 C.ar      1 ANP1665     0.0000 
      3 C5         24.0950   66.8980  -87.0590 C.ar      1 ANP1665     0.0000 
      4 C6         23.8710   68.1510  -87.8290 C.ar      1 ANP1665     0.0000 
      5 C8         24.5180   64.8780  -86.2020 C.2       1 ANP1665     0.0000 
      6 N1         23.4590   69.2550  -87.1430 N.ar      1 ANP1665     0.0000 
      7 O1G        25.4780   55.6360  -83.8280 O.co2     1 ANP1665     0.0000 
      8 O2'        21.7770   65.4180  -83.3060 O.3       1 ANP1665     0.0000 
      9 O2G        26.6990   56.5460  -81.8140 O.co2     1 ANP1665     0.0000 
     10 O3'        22.8700   64.4470  -81.0460 O.3       1 ANP1665     0.0000 
     11 C3'        23.1760   63.7310  -82.2870 C.3       1 ANP1665     0.0000 
     12 C4'        24.6770   63.4980  -82.4570 C.3       1 ANP1665     0.0000 
     13 C5'        24.9680   62.1540  -83.1540 C.3       1 ANP1665     0.0000 
     14 O5'        24.1500   61.9180  -84.3260 O.3       1 ANP1665     0.0000 
     15 PA         23.6770   60.3470  -84.5150 P.3       1 ANP1665     0.0000 
     16 O3A        25.1840   59.9340  -85.0300 O.3       1 ANP1665     0.0000 
     17 O1A        22.6730   60.5990  -85.7350 O.co2     1 ANP1665     0.0000 
     18 O2A        23.1570   59.9860  -83.0850 O.co2     1 ANP1665     0.0000 
     19 O3G        27.9350   56.3140  -84.1770 O.co2     1 ANP1665     0.0000 
     20 O1B        24.0130   57.8400  -85.7680 O.co2     1 ANP1665     0.0000 
     21 O2B        26.5400   58.4640  -86.4520 O.co2     1 ANP1665     0.0000 
     22 C2'        22.7980   64.4990  -83.5350 C.3       1 ANP1665     0.0000 
     23 C1'        24.0220   65.3370  -83.7420 C.3       1 ANP1665     0.0000 
     24 O4'        25.1360   64.5290  -83.3500 O.3       1 ANP1665     0.0000 
     25 N9         24.1180   65.6670  -85.1570 N.pl3     1 ANP1665     0.0000 
     26 N7         24.4970   65.6240  -87.3950 N.2       1 ANP1665     0.0000 
     27 N6         24.1110   68.1590  -89.2180 N.pl3     1 ANP1665     0.0000 
     28 N3         23.4760   68.0820  -84.9610 N.ar      1 ANP1665     0.0000 
     29 PG         26.6320   56.6130  -83.4000 P.3       1 ANP1665     0.0000 
     30 PB         25.4200   58.3150  -85.2980 P.3       1 ANP1665     0.0000 
     31 N3B        25.9740   58.1860  -83.6670 N.4       1 ANP1665     0.0000 
     32 H          22.9782   70.0991  -85.2784 H         1 ANP1665     0.0000 
     33 H          24.7771   63.9559  -86.1509 H         1 ANP1665     0.0000 
     34 H          22.6973   62.7688  -82.3292 H         1 ANP1665     0.0000 
     35 H          25.1602   63.5370  -81.5320 H         1 ANP1665     0.0000 
     36 H          24.8242   61.3532  -82.4007 H         1 ANP1665     0.0000 
     37 H          26.0462   62.1425  -83.4126 H         1 ANP1665     0.0000 
     38 H          22.6785   63.8658  -84.3341 H         1 ANP1665     0.0000 
     39 H          23.9449   66.2113  -83.1469 H         1 ANP1665     0.0000 
     40 H          24.4331   67.2990  -89.6138 H         1 ANP1665     0.0000 
     41 H          23.9386   69.0240  -89.6893 H         1 ANP1665     0.0000 
     42 H          21.7215   65.5004  -82.3110 H         1 ANP1665     0.0000 
     43 H          22.7375   63.7312  -80.3603 H         1 ANP1665     0.0000 
@<TRIPOS>BOND
     1    6    1 ar   
     2   28    1 ar   
     3   32    1 1    
     4    3    2 ar   
     5   25    2 1    
     6   28    2 ar   
     7    4    3 ar   
     8   26    3 1    
     9    6    4 ar   
    10   27    4 1    
    11   25    5 1    
    12   26    5 2    
    13   33    5 1    
    14   29    7 ar   
    15   22    8 1    
    16   42    8 1    
    17   29    9 ar   
    18   11   10 1    
    19   43   10 1    
    20   12   11 1    
    21   22   11 1    
    22   34   11 1    
    23   13   12 1    
    24   24   12 1    
    25   35   12 1    
    26   14   13 1    
    27   36   13 1    
    28   37   13 1    
    29   15   14 1    
    30   16   15 1    
    31   17   15 ar   
    32   18   15 ar   
    33   30   16 1    
    34   29   19 ar   
    35   30   20 ar   
    36   30   21 ar   
    37   23   22 1    
    38   38   22 1    
    39   24   23 1    
    40   25   23 1    
    41   39   23 1    
    42   40   27 1    
    43   41   27 1    
    44   31   29 1    
    45   31   30 1    
@<TRIPOS>SUBSTRUCTURE
     1 ANP1665     1 GROUP   
@<TRIPOS>SET

