#    Name: 2q2z_MKK_1_INTS_M
#    Modification time : Mon Mar 24 20:32:21 2014

@<TRIPOS>MOLECULE
2q2z_MKK_1_INTS_M
   64     0     6     0     0
SMALL
NO_CHARGES


@<TRIPOS>ATOM
      1 CA         24.2015   15.9830  105.3780 C.3       2 GLC5        0.0000 
      2 CA         22.8710   15.2870  106.7010 C.3       6 GLL5        0.0000 
      3 CA         25.5320   16.6790  104.0550 C.3       4 GLP5        0.0000 
      4 CA         19.4535   12.4410  108.8260 C.3       2 GLC5        0.0000 
      5 CA         19.2200   13.8630  110.3100 C.3       6 GLL5        0.0000 
      6 CA         19.6870   11.0190  107.3420 C.3       4 GLP5        0.0000 
      7 CA         20.3710   12.6040  111.3730 C.3       2 GLC5        0.0000 
      8 CA         21.5220   11.3450  112.4360 C.3       4 GLP5        0.0000 
      9 CA         21.0180   14.7910  111.2775 C.3       2 GLC5        0.0000 
     10 CA         22.8160   15.7190  112.2450 C.3       4 GLP5        0.0000 
     11 CA         15.6100   11.9150  111.8280 C.3       2 GLC5        0.0000 
     12 CA         17.0780   12.9400  112.8250 C.3       6 GLL5        0.0000 
     13 CA         14.1420   10.8900  110.8310 C.3       4 GLP5        0.0000 
     14 CA         20.9780   15.0655  112.7480 C.3       2 GLC5        0.0000 
     15 CA         19.1400   14.4120  113.2510 C.3       6 GLL5        0.0000 
     16 CA         18.1420   18.1685  113.1205 C.3       2 GLC5        0.0000 
     17 CA         18.2350   18.4940  111.1570 C.3       6 GLL5        0.0000 
     18 CA         18.0490   17.8430  115.0840 C.3       4 GLP5        0.0000 
     19 CA         20.1325   18.1260  111.0535 C.3       2 GLC5        0.0000 
     20 CA         22.0300   17.7580  110.9500 C.3       4 GLP5        0.0000 
     21 CA         18.9285   19.9870  110.8520 C.3       2 GLC5        0.0000 
     22 CA         19.6220   21.4800  110.5470 C.3       4 GLP5        0.0000 
     23 CA         18.0705   19.2365  109.0540 C.3       2 GLC5        0.0000 
     24 CA         17.9060   19.9790  106.9510 C.3       4 GLP5        0.0000 
     25 N          16.2670   18.0705  113.3510 N.am      1 SEC2        0.0000 
     26 N          16.4600   17.1550  112.2320 N.am      5 SEL2        0.0000 
     27 N          16.0740   18.9860  114.4700 N.am      3 SEP2        0.0000 
     28 CA         22.1750   11.7850  110.3440 C.3       2 GLC5        0.0000 
     29 CA         21.7890   12.9590  109.0780 C.3       6 GLL5        0.0000 
     30 CA         22.5610   10.6110  111.6100 C.3       4 GLP5        0.0000 
     31 CA         23.8625   17.0785  104.9785 C.3       2 GLC5        0.0000 
     32 CA         22.1930   17.4780  105.9020 C.3       6 GLL5        0.0000 
     33 CA         22.2470   19.3120  105.6160 C.3       2 GLC5        0.0000 
     34 CA         22.3010   21.1460  105.3300 C.3       4 GLP5        0.0000 
     35 CA         20.4190   18.8225  105.7800 C.3       2 GLC5        0.0000 
     36 CA         18.6450   20.1670  105.6580 C.3       4 GLP5        0.0000 
     37 CA         21.2115   17.4620  104.0315 C.3       2 GLC5        0.0000 
     38 CA         20.2300   17.4460  102.1610 C.3       4 GLP5        0.0000 
     39 CA         15.3805   12.5565  110.4810 C.3       2 GLC5        0.0000 
     40 CA         16.6190   14.2230  110.1310 C.3       6 GLL5        0.0000 
     41 CA         21.5829   16.7095  109.4590 C.3       2 GLC5        0.0000 
     42 CA         20.8550   15.0040  108.6450 C.3       6 GLL5        0.0000 
     43 CA         22.3042   14.6120  110.4950 C.3       2 GLC5        0.0000 
     44 CA         21.7970   13.0478  106.7140 C.3       2 GLC5        0.0000 
     45 CA         22.8530   14.0980  107.5250 C.3       6 GLL5        0.0000 
     46 CA         20.7320   11.4030  106.3150 C.3       4 GLP5        0.0000 
     47 CA         23.6095   15.7807  108.8575 C.3       2 GLC5        0.0000 
     48 CA         24.3570   16.8690  110.6020 C.3       4 GLP5        0.0000 
     49 CA         16.2205   13.7755  113.7798 C.3       2 GLC5        0.0000 
     50 CA         18.0440   13.9180  112.3780 C.3       6 GLL5        0.0000 
     51 CA         14.8800   14.1220  114.9580 C.3       4 GLP5        0.0000 
     52 CA         20.0570   12.7550  112.6253 C.3       2 GLC5        0.0000 
     53 CA         16.3432   13.4250  114.7850 C.3       2 GLC5        0.0000 
     54 CA         17.2430   12.4510  114.1900 C.3       6 GLL5        0.0000 
     55 CA         18.8762   14.5000  116.4608 C.3       2 GLC5        0.0000 
     56 CA         18.3700   13.0050  115.0340 C.3       6 GLL5        0.0000 
     57 CA         18.8820   15.5040  118.0960 C.3       4 GLP5        0.0000 
     58 CA         18.1006   11.1551  114.7174 C.3       2 GLC5        0.0000 
     59 CA         18.4360    9.4600  115.1640 C.3       4 GLP5        0.0000 
     60 CA         20.3833   12.3085  114.3498 C.3       2 GLC5        0.0000 
     61 CA         21.8960   11.1210  113.8740 C.3       4 GLP5        0.0000 
     62 CA         21.1446   12.5731  107.5591 C.3       2 GLC5        0.0000 
     63 CA         23.2964   12.8339  109.2071 C.3       2 GLC5        0.0000 
     64 CA         24.5360   12.1510  109.8910 C.3       4 GLP5        0.0000 
@<TRIPOS>BOND
@<TRIPOS>SUBSTRUCTURE
     1 SEC2       25 GROUP        1 X    SEC  0     ROOT SEC X 2
     2 GLC5        1 GROUP        1 X    GLC  0     **** GLC X 6
     3 SEP2       27 GROUP        1 Y    SEP  0     ROOT SEP Y 9
     4 GLP5        3 GROUP        1 Y    GLP  0     **** GLP Y 13
     5 SEL2       26 GROUP        1 Z    SEL  0     ROOT SEL Z 16
     6 GLL5        2 GROUP        1 Z    GLL  0     **** GLL Z 20
@<TRIPOS>SET

