#    Name: 2q2z_MKK_1_ligand
#    Modification time : Mon Mar 24 20:32:21 2014

@<TRIPOS>MOLECULE
2q2z_MKK_1_ligand
   68    71     1     0     0
SMALL
NO_CHARGES


@<TRIPOS>ATOM
      1 C1         21.9390   16.3780  106.8010 C.ar      1 MKK604      0.0000 
      2 C2         20.8940   16.2580  107.7810 C.ar      1 MKK604      0.0000 
      3 C3         20.8550   15.0040  108.6450 C.ar      1 MKK604      0.0000 
      4 C4         21.7960   14.0510  108.4120 C.ar      1 MKK604      0.0000 
      5 C5         22.8530   14.0980  107.5250 C.ar      1 MKK604      0.0000 
      6 C6         22.8710   15.2870  106.7010 C.ar      1 MKK604      0.0000 
      7 N4         19.8030   14.9600  109.5910 N.pl3     1 MKK604      0.0000 
      8 N1         19.2370   15.9940  110.1130 N.2       1 MKK604      0.0000 
      9 C24        18.1900   15.9200  110.9110 C.2       1 MKK604      0.0000 
     10 C13        17.9360   14.4530  110.9630 C.3       1 MKK604      0.0000 
     11 C14        19.2200   13.8630  110.3100 C.3       1 MKK604      0.0000 
     12 C17        18.0440   13.9180  112.3780 C.ar      1 MKK604      0.0000 
     13 C19        17.0780   12.9400  112.8250 C.ar      1 MKK604      0.0000 
     14 C20        17.2430   12.4510  114.1900 C.ar      1 MKK604      0.0000 
     15 C21        18.3700   13.0050  115.0340 C.ar      1 MKK604      0.0000 
     16 C22        19.3710   13.9870  114.6170 C.ar      1 MKK604      0.0000 
     17 C23        19.1400   14.4120  113.2510 C.ar      1 MKK604      0.0000 
     18 C29        17.5020   17.1510  111.5140 C.2       1 MKK604      0.0000 
     19 C9         18.2350   18.4940  111.1570 C.3       1 MKK604      0.0000 
     20 O39        16.4600   17.1550  112.2320 O.2       1 MKK604      0.0000 
     21 F40        21.7890   12.9590  109.0780 F         1 MKK604      0.0000 
     22 C10        22.1930   17.4780  105.9020 C.3       1 MKK604      0.0000 
     23 C7         16.6190   14.2230  110.1310 C.3       1 MKK604      0.0000 
     24 C8         16.5880   15.0110  108.8600 C.3       1 MKK604      0.0000 
     25 C11        15.2640   14.9690  108.0520 C.3       1 MKK604      0.0000 
     26 N2         15.6040   14.5620  106.6140 N.4       1 MKK604      0.0000 
     27 C12        14.6410   13.4540  106.1960 C.3       1 MKK604      0.0000 
     28 C15        15.7160   15.7320  105.6520 C.3       1 MKK604      0.0000 
     29 C16        14.2990   16.3190  105.3890 C.3       1 MKK604      0.0000 
     30 C18        13.2460   14.2040  106.3050 C.3       1 MKK604      0.0000 
     31 N3         13.2750   15.1750  105.1600 N.am      1 MKK604      0.0000 
     32 C25        12.3950   14.8750  104.0090 C.2       1 MKK604      0.0000 
     33 C26        11.4650   13.6430  104.1160 C.3       1 MKK604      0.0000 
     34 O1         12.2950   15.5300  102.9640 O.2       1 MKK604      0.0000 
     35 H          20.2026   16.9475  107.9203 H         1 MKK604      0.0000 
     36 H          23.5418   13.4101  107.4362 H         1 MKK604      0.0000 
     37 H          23.6243   15.3558  105.9744 H         1 MKK604      0.0000 
     38 H          19.8516   13.5079  111.1010 H         1 MKK604      0.0000 
     39 H          18.9160   13.0629  109.6634 H         1 MKK604      0.0000 
     40 H          16.3523   12.6198  112.2501 H         1 MKK604      0.0000 
     41 H          16.6414   11.7698  114.5788 H         1 MKK604      0.0000 
     42 H          18.4230   12.6369  116.0121 H         1 MKK604      0.0000 
     43 H          20.0687   14.2965  115.1677 H         1 MKK604      0.0000 
     44 H          19.7834   15.1169  112.8368 H         1 MKK604      0.0000 
     45 H          15.7730   14.4954  110.7734 H         1 MKK604      0.0000 
     46 H          16.5473   13.1493  109.9199 H         1 MKK604      0.0000 
     47 H          17.4050   14.6667  108.1841 H         1 MKK604      0.0000 
     48 H          16.8163   16.0808  109.0752 H         1 MKK604      0.0000 
     49 H          14.8196   15.9458  108.0577 H         1 MKK604      0.0000 
     50 H          14.6095   14.2404  108.4907 H         1 MKK604      0.0000 
     51 H          16.6200   14.0762  106.6777 H         1 MKK604      0.0000 
     52 H          14.6494   12.6731  106.8887 H         1 MKK604      0.0000 
     53 H          14.7931   13.1858  105.1986 H         1 MKK604      0.0000 
     54 H          16.1311   15.4003  104.7114 H         1 MKK604      0.0000 
     55 H          16.3352   16.5065  106.0806 H         1 MKK604      0.0000 
     56 H          14.3348   16.9448  104.5085 H         1 MKK604      0.0000 
     57 H          13.9943   16.9017  106.2469 H         1 MKK604      0.0000 
     58 H          13.2188   14.7052  107.2348 H         1 MKK604      0.0000 
     59 H          12.4809   13.4857  106.1820 H         1 MKK604      0.0000 
     60 H          19.1766   18.5040  111.4935 H         1 MKK604      0.0000 
     61 H          18.2752   18.6440  110.1691 H         1 MKK604      0.0000 
     62 H          17.7730   19.2865  111.5552 H         1 MKK604      0.0000 
     63 H          22.3678   18.3293  106.3968 H         1 MKK604      0.0000 
     64 H          22.9895   17.3073  105.3220 H         1 MKK604      0.0000 
     65 H          21.4178   17.6467  105.2932 H         1 MKK604      0.0000 
     66 H          11.9825   12.7971  104.2446 H         1 MKK604      0.0000 
     67 H          10.8334   13.7203  104.8874 H         1 MKK604      0.0000 
     68 H          10.9094   13.5245  103.2930 H         1 MKK604      0.0000 
@<TRIPOS>BOND
     1    2    1 ar   
     2    6    1 ar   
     3   22    1 1    
     4    3    2 ar   
     5   35    2 1    
     6    4    3 ar   
     7    7    3 1    
     8    5    4 ar   
     9   21    4 1    
    10    6    5 ar   
    11   36    5 1    
    12   37    6 1    
    13    8    7 1    
    14   11    7 1    
    15    9    8 2    
    16   10    9 1    
    17   18    9 1    
    18   11   10 1    
    19   12   10 1    
    20   23   10 1    
    21   38   11 1    
    22   39   11 1    
    23   13   12 ar   
    24   17   12 ar   
    25   14   13 ar   
    26   40   13 1    
    27   15   14 ar   
    28   41   14 1    
    29   16   15 ar   
    30   42   15 1    
    31   17   16 ar   
    32   43   16 1    
    33   44   17 1    
    34   19   18 1    
    35   20   18 2    
    36   60   19 1    
    37   61   19 1    
    38   62   19 1    
    39   63   22 1    
    40   64   22 1    
    41   65   22 1    
    42   24   23 1    
    43   45   23 1    
    44   46   23 1    
    45   25   24 1    
    46   47   24 1    
    47   48   24 1    
    48   26   25 1    
    49   49   25 1    
    50   50   25 1    
    51   27   26 1    
    52   28   26 1    
    53   51   26 1    
    54   30   27 1    
    55   52   27 1    
    56   53   27 1    
    57   29   28 1    
    58   54   28 1    
    59   55   28 1    
    60   31   29 1    
    61   56   29 1    
    62   57   29 1    
    63   31   30 1    
    64   58   30 1    
    65   59   30 1    
    66   32   31 am   
    67   33   32 1    
    68   34   32 2    
    69   66   33 1    
    70   67   33 1    
    71   68   33 1    
@<TRIPOS>SUBSTRUCTURE
     1 MKK604      1 GROUP   
@<TRIPOS>SET

