#    Name: 1wbs_LI2_1_INTS_M
#    Modification time : Tue Mar 25 08:53:28 2014

@<TRIPOS>MOLECULE
1wbs_LI2_1_INTS_M
  106     0     9     0     0
SMALL
NO_CHARGES


@<TRIPOS>ATOM
      1 CA          6.6205   12.5115   38.8805 C.3       3 GLC5        0.0000 
      2 CA          6.4230   14.5080   38.5100 C.3       9 GLL5        0.0000 
      3 CA          6.8180   10.5150   39.2510 C.3       6 GLP5        0.0000 
      4 CA          4.6010   13.3510   38.8980 C.3       3 GLC5        0.0000 
      5 CA          2.7790   12.1940   39.2860 C.3       6 GLP5        0.0000 
      6 N           4.0950   13.6290   37.0815 N.am      2 SEC2        0.0000 
      7 N           5.2390   13.1310   36.3430 N.am      8 SEL2        0.0000 
      8 N           2.9510   14.1270   37.8200 N.am      5 SEP2        0.0000 
      9 O           7.8660   14.7205   34.3435 O.2       1 ALC1        0.0000 
     10 O           7.0090   13.6810   35.0110 O.2       7 ALL1        0.0000 
     11 O           8.7230   15.7600   33.6760 O.2       4 ALP1        0.0000 
     12 CA          6.7505   11.8655   30.2035 C.3       3 GLC5        0.0000 
     13 CA          6.5350   10.9230   31.8540 C.3       9 GLL5        0.0000 
     14 CA          6.9660   12.8080   28.5530 C.3       6 GLP5        0.0000 
     15 O           6.2525    8.6595   30.1140 O.2       1 ALC1        0.0000 
     16 O           6.1000   10.1270   30.8130 O.2       7 ALL1        0.0000 
     17 O           6.4050    7.1920   29.4150 O.2       4 ALP1        0.0000 
     18 O           7.6050    9.8390   30.0305 O.2       1 ALC1        0.0000 
     19 O           9.1100    9.5510   29.2480 O.2       4 ALP1        0.0000 
     20 CA          3.6155   10.5740   28.9220 C.3       3 GLC5        0.0000 
     21 CA          4.8030   10.4600   30.5020 C.3       9 GLL5        0.0000 
     22 CA          2.4280   10.6880   27.3420 C.3       6 GLP5        0.0000 
     23 CA          4.0740    8.8450   30.0410 C.3       3 GLC5        0.0000 
     24 CA          3.3450    7.2300   29.5800 C.3       6 GLP5        0.0000 
     25 CA          5.1995    8.9790   32.0085 C.3       3 GLC5        0.0000 
     26 CA          5.5960    7.4980   33.5150 C.3       6 GLP5        0.0000 
     27 CA          1.5255   11.9220   34.5585 C.3       3 GLC5        0.0000 
     28 CA          2.2040   11.6290   32.5140 C.3       9 GLL5        0.0000 
     29 CA          0.8470   12.2150   36.6030 C.3       6 GLP5        0.0000 
     30 CA         -1.0005    9.7340   32.7375 C.3       3 GLC5        0.0000 
     31 CA          0.6990    9.8620   31.5030 C.3       9 GLL5        0.0000 
     32 CA         -2.7000    9.6060   33.9720 C.3       6 GLP5        0.0000 
     33 CA          0.2505    6.7765   30.2435 C.3       3 GLC5        0.0000 
     34 CA          0.3190    8.5320   31.3850 C.3       9 GLL5        0.0000 
     35 CA          0.1820    5.0210   29.1020 C.3       6 GLP5        0.0000 
     36 CA         -0.6010    7.6145   32.7355 C.3       3 GLC5        0.0000 
     37 CA         -1.5210    6.6970   34.0860 C.3       6 GLP5        0.0000 
     38 N           0.3820    6.3140   32.4685 N.am      2 SEC2        0.0000 
     39 N           0.9390    7.5840   32.0770 N.am      8 SEL2        0.0000 
     40 N          -0.1750    5.0440   32.8600 N.am      5 SEP2        0.0000 
     41 CA          1.7575    5.8630   32.2845 C.3       3 GLC5        0.0000 
     42 CA          1.9410    7.8700   32.8890 C.3       9 GLL5        0.0000 
     43 CA          1.5740    3.8560   31.6800 C.3       6 GLP5        0.0000 
     44 CA          0.2100    7.2835   33.4875 C.3       3 GLC5        0.0000 
     45 CA          6.0485   11.3795   34.7910 C.3       3 GLC5        0.0000 
     46 CA          5.6130   12.7130   33.2620 C.3       9 GLL5        0.0000 
     47 CA          6.4840   10.0460   36.3200 C.3       6 GLP5        0.0000 
     48 CA          6.2490   12.2335   40.2165 C.3       3 GLC5        0.0000 
     49 CA          5.6800   13.9520   41.1820 C.3       9 GLL5        0.0000 
     50 CA          4.2295   13.0730   40.2340 C.3       3 GLC5        0.0000 
     51 CA          7.7795   13.1960   43.0090 C.3       3 GLC5        0.0000 
     52 CA          5.8330   13.5300   42.6410 C.3       9 GLL5        0.0000 
     53 CA          9.7260   12.8620   43.3770 C.3       6 GLP5        0.0000 
     54 CA          6.4015   11.8345   42.9830 C.3       3 GLC5        0.0000 
     55 CA          6.9700   10.1390   43.3250 C.3       6 GLP5        0.0000 
     56 CA          6.5500   13.2430   44.6530 C.3       3 GLC5        0.0000 
     57 CA          7.2670   12.9560   46.6650 C.3       6 GLP5        0.0000 
     58 CA          8.0575   14.2850   43.3290 C.3       3 GLC5        0.0000 
     59 CA          6.3890   15.7080   43.2810 C.3       9 GLL5        0.0000 
     60 CA          6.0365   15.6385   45.0675 C.3       3 GLC5        0.0000 
     61 CA          5.6840   15.5690   46.8540 C.3       6 GLP5        0.0000 
     62 CA          7.9085   16.5745   44.2295 C.3       3 GLC5        0.0000 
     63 CA          9.4280   17.4410   45.1780 C.3       6 GLP5        0.0000 
     64 CA          5.5435   16.6172   38.1135 C.3       3 GLC5        0.0000 
     65 CA          7.6970   16.8470   37.7910 C.3       9 GLL5        0.0000 
     66 CA          3.5040   16.5340   37.7660 C.3       6 GLP5        0.0000 
     67 CA          9.1556   17.3935   39.4547 C.3       3 GLC5        0.0000 
     68 CA          7.4690   16.5540   39.1310 C.3       9 GLL5        0.0000 
     69 CA         10.5730   17.8000   40.5350 C.3       6 GLP5        0.0000 
     70 CA          5.0578   15.7420   38.3927 C.3       3 GLC5        0.0000 
     71 CA          5.2385   15.9592   37.3705 C.3       3 GLC5        0.0000 
     72 CA          6.6510   14.7930   37.1560 C.3       9 GLL5        0.0000 
     73 CA          9.1186   16.6360   36.0345 C.3       3 GLC5        0.0000 
     74 CA          7.2950   15.9760   36.7940 C.3       9 GLL5        0.0000 
     75 CA         10.5860   16.5740   34.8630 C.3       6 GLP5        0.0000 
     76 CA          9.1363   12.6710   34.4055 C.3       3 GLC5        0.0000 
     77 CA          6.8070   12.7690   33.9560 C.3       9 GLL5        0.0000 
     78 CA         10.9390   12.9990   35.0420 C.3       6 GLP5        0.0000 
     79 CA          9.3223   11.5090   31.8848 C.3       3 GLC5        0.0000 
     80 CA          7.8600   11.9170   33.5820 C.3       9 GLL5        0.0000 
     81 CA         10.8500   11.5590   30.7020 C.3       6 GLP5        0.0000 
     82 CA          7.3561   13.2595   31.9795 C.3       3 GLC5        0.0000 
     83 CA          7.7290   11.0010   32.5530 C.3       9 GLL5        0.0000 
     84 CA          7.1810   14.8470   30.7980 C.3       6 GLP5        0.0000 
     85 CA          7.0076   10.8590   34.7405 C.3       3 GLC5        0.0000 
     86 CA          5.7765   11.8820   29.7287 C.3       3 GLC5        0.0000 
     87 CA          3.3410   12.4695   29.4185 C.3       3 GLC5        0.0000 
     88 CA          4.3710   11.4520   31.3070 C.3       9 GLL5        0.0000 
     89 CA          2.9910   13.1600   27.5310 C.3       6 GLP5        0.0000 
     90 CA          1.1987   13.0617   31.6063 C.3       3 GLC5        0.0000 
     91 CA          3.0110   12.1060   31.3050 C.3       9 GLL5        0.0000 
     92 CA         -0.2100   14.2560   31.3030 C.3       6 GLP5        0.0000 
     93 CA          2.0587    8.2556   30.6178 C.3       3 GLC5        0.0000 
     94 CA          2.7520    7.8763   31.2762 C.3       3 GLC5        0.0000 
     95 CA          3.8775    8.0103   33.2437 C.3       3 GLC5        0.0000 
     96 CA          6.3615   13.5465   31.7688 C.3       3 GLC5        0.0000 
     97 CA          5.4710   11.7790   32.2170 C.3       9 GLL5        0.0000 
     98 CA          5.9488    9.4343   32.8626 C.3       3 GLC5        0.0000 
     99 CA          4.2363   15.0470   42.2417 C.3       3 GLC5        0.0000 
    100 CA          2.7160   16.3530   42.5720 C.3       6 GLP5        0.0000 
    101 CA          3.9383   13.2985   42.7173 C.3       3 GLC5        0.0000 
    102 CA          2.1200   12.8560   43.5230 C.3       6 GLP5        0.0000 
    103 CA          4.5353   16.1538   42.5640 C.3       3 GLC5        0.0000 
    104 CA          8.4247   14.1901   37.7479 C.3       3 GLC5        0.0000 
    105 CA          6.8000   15.3920   39.5290 C.3       9 GLL5        0.0000 
    106 CA         10.0070   13.1040   37.3740 C.3       6 GLP5        0.0000 
@<TRIPOS>BOND
@<TRIPOS>SUBSTRUCTURE
     1 ALC1        9 GROUP        1 X    ALC  0     ROOT ALC X 1
     2 SEC2        6 GROUP        1 X    SEC  0     **** SEC X 2
     3 GLC5        1 GROUP        1 X    GLC  0     **** GLC X 6
     4 ALP1       11 GROUP        1 Y    ALP  0     ROOT ALP Y 8
     5 SEP2        8 GROUP        1 Y    SEP  0     **** SEP Y 9
     6 GLP5        3 GROUP        1 Y    GLP  0     **** GLP Y 13
     7 ALL1       10 GROUP        1 Z    ALL  0     ROOT ALL Z 15
     8 SEL2        7 GROUP        1 Z    SEL  0     **** SEL Z 16
     9 GLL5        2 GROUP        1 Z    GLL  0     **** GLL Z 20
@<TRIPOS>SET

