#    Name: 1wbs_LI2_1_ligand
#    Modification time : Tue Mar 25 08:53:28 2014

@<TRIPOS>MOLECULE
1wbs_LI2_1_ligand
   58    62     1     0     0
SMALL
NO_CHARGES


@<TRIPOS>ATOM
      1 F1          8.3180   17.9930   37.4450 F         1 LI21355     0.0000 
      2 C2          7.6970   16.8470   37.7910 C.ar      1 LI21355     0.0000 
      3 C3          7.4690   16.5540   39.1310 C.ar      1 LI21355     0.0000 
      4 C4          6.8000   15.3920   39.5290 C.ar      1 LI21355     0.0000 
      5 C5          6.4230   14.5080   38.5100 C.ar      1 LI21355     0.0000 
      6 C6          6.6510   14.7930   37.1560 C.ar      1 LI21355     0.0000 
      7 C7          7.2950   15.9760   36.7940 C.ar      1 LI21355     0.0000 
      8 C8          6.2270   13.8110   36.1220 C.2       1 LI21355     0.0000 
      9 O9          5.2390   13.1310   36.3430 O.2       1 LI21355     0.0000 
     10 N10         7.0090   13.6810   35.0110 N.am      1 LI21355     0.0000 
     11 C11         6.8070   12.7690   33.9560 C.ar      1 LI21355     0.0000 
     12 C12         7.8600   11.9170   33.5820 C.ar      1 LI21355     0.0000 
     13 C13         7.7290   11.0010   32.5530 C.ar      1 LI21355     0.0000 
     14 C14         6.5350   10.9230   31.8540 C.ar      1 LI21355     0.0000 
     15 N15         6.1000   10.1270   30.8130 N.pl3     1 LI21355     0.0000 
     16 C17         4.8030   10.4600   30.5020 C.2       1 LI21355     0.0000 
     17 C18         4.3710   11.4520   31.3070 C.2       1 LI21355     0.0000 
     18 C19         3.0110   12.1060   31.3050 C.3       1 LI21355     0.0000 
     19 C20         2.2040   11.6290   32.5140 C.3       1 LI21355     0.0000 
     20 C21         1.7530   10.1990   32.3490 C.ar      1 LI21355     0.0000 
     21 C22         0.6990    9.8620   31.5030 C.ar      1 LI21355     0.0000 
     22 C23         0.3190    8.5320   31.3850 C.ar      1 LI21355     0.0000 
     23 N24         0.9390    7.5840   32.0770 N.ar      1 LI21355     0.0000 
     24 C25         1.9410    7.8700   32.8890 C.ar      1 LI21355     0.0000 
     25 C26         2.3770    9.1750   33.0560 C.ar      1 LI21355     0.0000 
     26 C27         5.4710   11.7790   32.2170 C.ar      1 LI21355     0.0000 
     27 C28         5.6130   12.7130   33.2620 C.ar      1 LI21355     0.0000 
     28 N29         6.5920   15.0760   40.9080 N.3       1 LI21355     0.0000 
     29 C30         5.6800   13.9520   41.1820 C.3       1 LI21355     0.0000 
     30 C31         5.8330   13.5300   42.6410 C.3       1 LI21355     0.0000 
     31 O32         5.4740   14.6290   43.4950 O.3       1 LI21355     0.0000 
     32 C33         6.3890   15.7080   43.2810 C.3       1 LI21355     0.0000 
     33 C34         6.3200   16.2010   41.8310 C.3       1 LI21355     0.0000 
     34 H           7.8040   17.2153   39.8605 H         1 LI21355     0.0000 
     35 H           5.9601   13.6133   38.7645 H         1 LI21355     0.0000 
     36 H           7.4641   16.1903   35.8111 H         1 LI21355     0.0000 
     37 H           7.8613   14.3256   34.9162 H         1 LI21355     0.0000 
     38 H           8.7603   11.9838   34.0991 H         1 LI21355     0.0000 
     39 H           8.5117   10.3822   32.3081 H         1 LI21355     0.0000 
     40 H           6.6226    9.4500   30.3781 H         1 LI21355     0.0000 
     41 H           4.2838   10.0327   29.7994 H         1 LI21355     0.0000 
     42 H           2.4765   11.8427   30.3966 H         1 LI21355     0.0000 
     43 H           3.1208   13.1856   31.3565 H         1 LI21355     0.0000 
     44 H           1.3325   12.2785   32.6352 H         1 LI21355     0.0000 
     45 H           2.8244   11.7185   33.4102 H         1 LI21355     0.0000 
     46 H           0.2104   10.5899   30.9740 H         1 LI21355     0.0000 
     47 H          -0.4676    8.3019   30.7366 H         1 LI21355     0.0000 
     48 H           2.4332    7.1178   33.4288 H         1 LI21355     0.0000 
     49 H           3.1508    9.3868   33.6930 H         1 LI21355     0.0000 
     50 H           4.8377   13.3345   33.4941 H         1 LI21355     0.0000 
     51 H           5.9169   13.1003   40.5481 H         1 LI21355     0.0000 
     52 H           4.6461   14.2446   41.0123 H         1 LI21355     0.0000 
     53 H           6.8708   13.2224   42.7963 H         1 LI21355     0.0000 
     54 H           5.1897   12.6622   42.8106 H         1 LI21355     0.0000 
     55 H           7.4274   15.4053   43.4796 H         1 LI21355     0.0000 
     56 H           6.1665   16.5646   43.9337 H         1 LI21355     0.0000 
     57 H           5.3273   16.6114   41.6528 H         1 LI21355     0.0000 
     58 H           7.0575   16.9913   41.6996 H         1 LI21355     0.0000 
@<TRIPOS>BOND
     1    2    1 1    
     2    3    2 ar   
     3    7    2 ar   
     4    4    3 ar   
     5   34    3 1    
     6    5    4 ar   
     7   28    4 1    
     8    6    5 ar   
     9   35    5 1    
    10    7    6 ar   
    11    8    6 1    
    12   36    7 1    
    13    9    8 2    
    14   10    8 am   
    15   11   10 1    
    16   37   10 1    
    17   12   11 ar   
    18   27   11 ar   
    19   13   12 ar   
    20   38   12 1    
    21   14   13 ar   
    22   39   13 1    
    23   15   14 1    
    24   26   14 ar   
    25   16   15 1    
    26   40   15 1    
    27   17   16 2    
    28   41   16 1    
    29   18   17 1    
    30   26   17 1    
    31   19   18 1    
    32   42   18 1    
    33   43   18 1    
    34   20   19 1    
    35   44   19 1    
    36   45   19 1    
    37   21   20 ar   
    38   25   20 ar   
    39   22   21 ar   
    40   46   21 1    
    41   23   22 ar   
    42   47   22 1    
    43   24   23 ar   
    44   25   24 ar   
    45   48   24 1    
    46   49   25 1    
    47   27   26 ar   
    48   50   27 1    
    49   29   28 1    
    50   33   28 1    
    51   30   29 1    
    52   51   29 1    
    53   52   29 1    
    54   31   30 1    
    55   53   30 1    
    56   54   30 1    
    57   32   31 1    
    58   33   32 1    
    59   55   32 1    
    60   56   32 1    
    61   57   33 1    
    62   58   33 1    
@<TRIPOS>SUBSTRUCTURE
     1 LI21355     1 GROUP   
@<TRIPOS>SET

