#    Name: 2gek_GDP_1_INTS_M
#    Modification time : Tue Mar 25 14:03:24 2014

@<TRIPOS>MOLECULE
2gek_GDP_1_INTS_M
   53     0    12     0     0
SMALL
NO_CHARGES


@<TRIPOS>ATOM
      1 NZ         -6.2920   43.0705   30.8785 N.4       3 LYC4        0.0000 
      2 NZ         -6.3980   43.5090   29.5760 N.4      11 LYL4        0.0000 
      3 NZ         -6.1860   42.6320   32.1810 N.4       7 LYP4        0.0000 
      4 N          -6.2920   43.0705   30.8785 N.am      2 SEC2        0.0000 
      5 N          -6.3980   43.5090   29.5760 N.am     10 SEL2        0.0000 
      6 N          -6.1860   42.6320   32.1810 N.am      6 SEP2        0.0000 
      7 N          -3.9375   43.9515   26.1825 N.am      2 SEC2        0.0000 
      8 N          -5.1520   43.8490   27.2730 N.am     10 SEL2        0.0000 
      9 N          -2.7230   44.0540   25.0920 N.am      6 SEP2        0.0000 
     10 NZ         -4.4175   43.0960   31.8570 N.4       3 LYC4        0.0000 
     11 NZ         -2.6490   43.5600   31.5330 N.4      11 LYL4        0.0000 
     12 O           3.6040   43.4040   27.7000 O.2       1 ALC1        0.0000 
     13 O           2.3590   43.7700   27.2680 O.2       9 ALL1        0.0000 
     14 O           4.8490   43.0380   28.1320 O.2       5 ALP1        0.0000 
     15 CA          1.2890   45.2950   31.3720 C.3       4 GLC5        0.0000 
     16 CA          1.6970   44.7990   29.3480 C.3      12 GLL5        0.0000 
     17 CA          0.8810   45.7910   33.3960 C.3       8 GLP5        0.0000 
     18 CA          3.5145   45.8210   30.0210 C.3       4 GLC5        0.0000 
     19 CA          5.3320   46.8430   30.6940 C.3       8 GLP5        0.0000 
     20 N           4.1365   45.4705   29.0405 N.am      2 SEC2        0.0000 
     21 N           3.0730   44.8520   29.7150 N.am     10 SEL2        0.0000 
     22 N           5.2000   46.0890   28.3660 N.am      6 SEP2        0.0000 
     23 O           3.7535   43.8005   30.0055 O.2       1 ALC1        0.0000 
     24 O           3.0730   44.8520   29.7150 O.2       9 ALL1        0.0000 
     25 O           4.4340   42.7490   30.2960 O.2       5 ALP1        0.0000 
     26 CA          0.3215   47.9545   28.0320 C.3       4 GLC5        0.0000 
     27 CA          1.3650   46.1010   28.6530 C.3      12 GLL5        0.0000 
     28 CA         -0.7220   49.8080   27.4110 C.3       8 GLP5        0.0000 
     29 CA         -0.3315   49.7815   29.5735 C.3       4 GLC5        0.0000 
     30 CA          0.7220   48.9530   30.8000 C.3      12 GLL5        0.0000 
     31 CA         -1.3850   50.6100   28.3470 C.3       8 GLP5        0.0000 
     32 O           3.1855   51.9530   30.5295 O.2       1 ALC1        0.0000 
     33 O           2.4160   50.7240   30.5910 O.2       9 ALL1        0.0000 
     34 O           3.9550   53.1820   30.4680 O.2       5 ALP1        0.0000 
     35 O           4.0790   51.8060   29.7745 O.2       1 ALC1        0.0000 
     36 O           4.2030   50.4300   29.0810 O.2       9 ALL1        0.0000 
     37 O           4.7160   49.8365   28.1465 O.2       1 ALC1        0.0000 
     38 O           5.2290   49.2430   27.2120 O.2       5 ALP1        0.0000 
     39 CA          0.3875   49.0225   28.6160 C.3       4 GLC5        0.0000 
     40 CA          1.4970   48.2370   29.8210 C.3      12 GLL5        0.0000 
     41 CA          3.4145   47.5400   30.2575 C.3       4 GLC5        0.0000 
     42 CA         -1.7235   45.2630   26.6430 C.3       4 GLC5        0.0000 
     43 CA          0.2110   44.3660   27.5740 C.3      12 GLL5        0.0000 
     44 CA         -2.9560   46.3860   25.5150 C.3       8 GLP5        0.0000 
     45 CA         -1.2590   43.5220   26.1700 C.3       4 GLC5        0.0000 
     46 CA         -1.1930   43.9140   27.9680 C.3      12 GLL5        0.0000 
     47 CA         -2.0270   42.9040   24.5690 C.3       8 GLP5        0.0000 
     48 CA          0.7160   42.0690   27.8460 C.3       4 GLC5        0.0000 
     49 CA          1.3850   43.7680   28.2910 C.3      12 GLL5        0.0000 
     50 CA          0.9850   40.1840   27.6610 C.3       8 GLP5        0.0000 
     51 CA          1.1850   43.0798   30.2628 C.3       4 GLC5        0.0000 
     52 CA          0.8290   41.8760   31.7060 C.3       8 GLP5        0.0000 
     53 CA          0.9952   47.1930   31.8532 C.3       4 GLC5        0.0000 
@<TRIPOS>BOND
@<TRIPOS>SUBSTRUCTURE
     1 ALC1       12 GROUP        1 X    ALC  0     ROOT ALC X 1
     2 SEC2        4 GROUP        1 X    SEC  0     **** SEC X 2
     3 LYC4        1 GROUP        1 X    LYC  0     **** LYC X 4
     4 GLC5       15 GROUP        1 X    GLC  0     **** GLC X 6
     5 ALP1       14 GROUP        1 Y    ALP  0     ROOT ALP Y 8
     6 SEP2        6 GROUP        1 Y    SEP  0     **** SEP Y 9
     7 LYP4        3 GROUP        1 Y    LYP  0     **** LYP Y 11
     8 GLP5       17 GROUP        1 Y    GLP  0     **** GLP Y 13
     9 ALL1       13 GROUP        1 Z    ALL  0     ROOT ALL Z 15
    10 SEL2        5 GROUP        1 Z    SEL  0     **** SEL Z 16
    11 LYL4        2 GROUP        1 Z    LYL  0     **** LYL Z 18
    12 GLL5       16 GROUP        1 Z    GLL  0     **** GLL Z 20
@<TRIPOS>SET

