#    Name: 2gek_GDP_1_ligand
#    Modification time : Tue Mar 25 14:03:24 2014

@<TRIPOS>MOLECULE
2gek_GDP_1_ligand
   40    42     1     0     0
SMALL
NO_CHARGES


@<TRIPOS>ATOM
      1 PB         -5.1640   43.9720   28.8040 P.3       1 GDP2567     0.0000 
      2 O1B        -5.1780   45.4160   29.2620 O.co2     1 GDP2567     0.0000 
      3 O2B        -6.3980   43.5090   29.5760 O.co2     1 GDP2567     0.0000 
      4 O3B        -5.1520   43.8490   27.2730 O.co2     1 GDP2567     0.0000 
      5 O3A        -3.9550   42.9370   29.2700 O.3       1 GDP2567     0.0000 
      6 PA         -2.6910   43.5720   30.0080 P.3       1 GDP2567     0.0000 
      7 O1A        -2.8890   45.0290   29.7160 O.co2     1 GDP2567     0.0000 
      8 O2A        -2.6490   43.5600   31.5330 O.co2     1 GDP2567     0.0000 
      9 O5'        -1.3680   43.1960   29.1710 O.3       1 GDP2567     0.0000 
     10 C5'        -1.1930   43.9140   27.9680 C.3       1 GDP2567     0.0000 
     11 C4'         0.2110   44.3660   27.5740 C.3       1 GDP2567     0.0000 
     12 O4'         0.3200   45.7700   27.7630 O.3       1 GDP2567     0.0000 
     13 C3'         1.3850   43.7680   28.2910 C.3       1 GDP2567     0.0000 
     14 O3'         2.3590   43.7700   27.2680 O.3       1 GDP2567     0.0000 
     15 C2'         1.6970   44.7990   29.3480 C.3       1 GDP2567     0.0000 
     16 O2'         3.0730   44.8520   29.7150 O.3       1 GDP2567     0.0000 
     17 C1'         1.3650   46.1010   28.6530 C.3       1 GDP2567     0.0000 
     18 N9          0.8580   47.1010   29.6280 N.pl3     1 GDP2567     0.0000 
     19 C8         -0.2620   47.0360   30.4070 C.2       1 GDP2567     0.0000 
     20 N7         -0.3370   48.1810   31.1140 N.2       1 GDP2567     0.0000 
     21 C5          0.7220   48.9530   30.8000 C.2       1 GDP2567     0.0000 
     22 C6          1.2550   50.2800   31.1840 C.2       1 GDP2567     0.0000 
     23 O6          0.6030   50.9290   32.0640 O.2       1 GDP2567     0.0000 
     24 N1          2.4160   50.7240   30.5910 N.am      1 GDP2567     0.0000 
     25 C2          3.0610   49.9970   29.6700 C.2       1 GDP2567     0.0000 
     26 N2          4.2030   50.4300   29.0810 N.pl3     1 GDP2567     0.0000 
     27 N3          2.6170   48.7720   29.3060 N.2       1 GDP2567     0.0000 
     28 C4          1.4970   48.2370   29.8210 C.2       1 GDP2567     0.0000 
     29 H          -1.8454   44.8471   27.9559 H         1 GDP2567     0.0000 
     30 H          -1.6002   43.3247   27.0829 H         1 GDP2567     0.0000 
     31 H           0.3397   44.1635   26.4911 H         1 GDP2567     0.0000 
     32 H           1.1427   42.8681   28.6763 H         1 GDP2567     0.0000 
     33 H           1.0372   44.6871   30.1613 H         1 GDP2567     0.0000 
     34 H           2.2185   46.4547   28.1495 H         1 GDP2567     0.0000 
     35 H          -0.8779   46.3023   30.4378 H         1 GDP2567     0.0000 
     36 H           2.7930   51.6621   30.8808 H         1 GDP2567     0.0000 
     37 H           4.8294   49.7196   28.7604 H         1 GDP2567     0.0000 
     38 H           4.3177   51.4215   29.0193 H         1 GDP2567     0.0000 
     39 H           3.1994   43.4568   27.7103 H         1 GDP2567     0.0000 
     40 H           3.3228   43.9056   29.9197 H         1 GDP2567     0.0000 
@<TRIPOS>BOND
     1    2    1 ar   
     2    3    1 ar   
     3    4    1 ar   
     4    5    1 1    
     5    6    5 1    
     6    7    6 ar   
     7    8    6 ar   
     8    9    6 1    
     9   10    9 1    
    10   11   10 1    
    11   29   10 1    
    12   30   10 1    
    13   12   11 1    
    14   13   11 1    
    15   31   11 1    
    16   17   12 1    
    17   14   13 1    
    18   15   13 1    
    19   32   13 1    
    20   39   14 1    
    21   16   15 1    
    22   17   15 1    
    23   33   15 1    
    24   40   16 1    
    25   18   17 1    
    26   34   17 1    
    27   19   18 1    
    28   28   18 1    
    29   20   19 2    
    30   35   19 1    
    31   21   20 1    
    32   22   21 1    
    33   28   21 2    
    34   23   22 2    
    35   24   22 am   
    36   25   24 1    
    37   36   24 1    
    38   26   25 1    
    39   27   25 2    
    40   37   26 1    
    41   38   26 1    
    42   28   27 1    
@<TRIPOS>SUBSTRUCTURE
     1 GDP2567     1 GROUP   
@<TRIPOS>SET

