#    Name: 3ce0_P34_1_INTS_M
#    Modification time : Mon Mar 24 20:58:39 2014

@<TRIPOS>MOLECULE
3ce0_P34_1_INTS_M
   44     0     9     0     0
SMALL
NO_CHARGES


@<TRIPOS>ATOM
      1 CA         20.3240   -8.2545   16.6650 C.3       3 GLC5        0.0000 
      2 CA         21.7950   -7.7540   18.0360 C.3       9 GLL5        0.0000 
      3 CA         18.8530   -8.7550   15.2940 C.3       6 GLP5        0.0000 
      4 CA         19.7730   -6.4830   17.0160 C.3       3 GLC5        0.0000 
      5 CA         21.1840   -5.4460   18.3610 C.3       9 GLL5        0.0000 
      6 CA         18.3620   -7.5200   15.6710 C.3       6 GLP5        0.0000 
      7 CA         20.0095   -6.8900   15.9140 C.3       3 GLC5        0.0000 
      8 CA         21.6570   -6.2600   16.1570 C.3       9 GLL5        0.0000 
      9 CA         15.7525   -7.8500    8.3985 C.3       3 GLC5        0.0000 
     10 CA         15.8680   -8.7560   10.4270 C.3       9 GLL5        0.0000 
     11 CA         15.6370   -6.9440    6.3700 C.3       6 GLP5        0.0000 
     12 CA         14.1250   -8.8930    9.5870 C.3       3 GLC5        0.0000 
     13 CA         12.3820   -9.0300    8.7470 C.3       6 GLP5        0.0000 
     14 CA         14.4210  -10.0955   11.0210 C.3       3 GLC5        0.0000 
     15 CA         12.9740  -11.4350   11.6150 C.3       6 GLP5        0.0000 
     16 CA         18.2120   -7.7295    9.6900 C.3       3 GLC5        0.0000 
     17 CA         16.7070   -7.6300   11.1030 C.3       9 GLL5        0.0000 
     18 CA         19.7170   -7.8290    8.2770 C.3       6 GLP5        0.0000 
     19 N          14.4710   -4.6560   11.4650 N.am      2 SEC2        0.0000 
     20 N          14.7630   -5.9630   10.9570 N.am      8 SEL2        0.0000 
     21 N          14.1790   -3.3490   11.9730 N.am      5 SEP2        0.0000 
     22 N          13.5075   -6.2110   10.7750 N.am      2 SEC2        0.0000 
     23 N          12.2520   -6.4590   10.5930 N.am      5 SEP2        0.0000 
     24 O          16.6720   -4.1330   12.8795 O.2       1 ALC1        0.0000 
     25 O          16.8910   -5.1350   11.9840 O.2       7 ALL1        0.0000 
     26 O          16.4530   -3.1310   13.7750 O.2       4 ALP1        0.0000 
     27 CA         17.8230   -5.0330   14.4680 C.3       3 GLC5        0.0000 
     28 CA         19.1340   -4.2500   13.0970 C.3       9 GLL5        0.0000 
     29 CA         16.5120   -5.8160   15.8390 C.3       6 GLP5        0.0000 
     30 CA         19.6947   -7.3733   10.3502 C.3       3 GLC5        0.0000 
     31 CA         18.9420   -6.7820   12.2000 C.3       9 GLL5        0.0000 
     32 CA         17.5705   -5.9505   14.0760 C.3       3 GLC5        0.0000 
     33 CA         19.0840   -8.2035    9.8545 C.3       3 GLC5        0.0000 
     34 CA         18.1280   -7.8810   11.5410 C.3       9 GLL5        0.0000 
     35 CA         18.4698   -9.0448    9.3545 C.3       3 GLC5        0.0000 
     36 CA         17.9440  -10.3860   10.6560 C.3       9 GLL5        0.0000 
     37 CA         16.1008  -11.5602   11.2645 C.3       3 GLC5        0.0000 
     38 CA         14.9790  -12.8600   12.0970 C.3       6 GLP5        0.0000 
     39 CA         16.9833  -11.8398    9.5750 C.3       3 GLC5        0.0000 
     40 CA         16.5010  -10.1350   10.2080 C.3       9 GLL5        0.0000 
     41 CA         16.7440  -13.4190    8.7180 C.3       6 GLP5        0.0000 
     42 CA         17.9900   -3.2150   11.5163 C.3       3 GLC5        0.0000 
     43 CA         18.3160   -5.3880   12.4260 C.3       9 GLL5        0.0000 
     44 CA         17.2550   -1.6110   10.2710 C.3       6 GLP5        0.0000 
@<TRIPOS>BOND
@<TRIPOS>SUBSTRUCTURE
     1 ALC1       24 GROUP        1 X    ALC  0     ROOT ALC X 1
     2 SEC2       19 GROUP        1 X    SEC  0     **** SEC X 2
     3 GLC5        1 GROUP        1 X    GLC  0     **** GLC X 6
     4 ALP1       26 GROUP        1 Y    ALP  0     ROOT ALP Y 8
     5 SEP2       21 GROUP        1 Y    SEP  0     **** SEP Y 9
     6 GLP5        3 GROUP        1 Y    GLP  0     **** GLP Y 13
     7 ALL1       25 GROUP        1 Z    ALL  0     ROOT ALL Z 15
     8 SEL2       20 GROUP        1 Z    SEL  0     **** SEL Z 16
     9 GLL5        2 GROUP        1 Z    GLL  0     **** GLL Z 20
@<TRIPOS>SET

