#    Name: 3ce0_P34_1_ligand
#    Modification time : Mon Mar 24 20:58:39 2014

@<TRIPOS>MOLECULE
3ce0_P34_1_ligand
   40    42     1     0     0
SMALL
NO_CHARGES


@<TRIPOS>ATOM
      1 CAA        21.7950   -7.7540   18.0360 C.3       1 P34601      0.0000 
      2 N          22.0100   -6.3750   17.5780 N.4       1 P34601      0.0000 
      3 CAB        21.1840   -5.4460   18.3610 C.3       1 P34601      0.0000 
      4 CA         21.6570   -6.2600   16.1570 C.3       1 P34601      0.0000 
      5 C          22.8490   -6.2570   15.1840 C.2       1 P34601      0.0000 
      6 O          23.9550   -6.4330   15.5810 O.2       1 P34601      0.0000 
      7 NAM        22.5890   -6.1590   13.7510 N.am      1 P34601      0.0000 
      8 CAP        21.2190   -5.9190   13.3130 C.ar      1 P34601      0.0000 
      9 CAK        20.4030   -7.0530   12.6470 C.ar      1 P34601      0.0000 
     10 CAU        18.9420   -6.7820   12.2000 C.ar      1 P34601      0.0000 
     11 CAT        18.1280   -7.8810   11.5410 C.ar      1 P34601      0.0000 
     12 CAI        18.7740   -9.2750   11.3230 C.ar      1 P34601      0.0000 
     13 CAF        17.9440  -10.3860   10.6560 C.ar      1 P34601      0.0000 
     14 CAE        16.5010  -10.1350   10.2080 C.ar      1 P34601      0.0000 
     15 CAH        15.8680   -8.7560   10.4270 C.ar      1 P34601      0.0000 
     16 CAS        16.7070   -7.6300   11.1030 C.ar      1 P34601      0.0000 
     17 CAQ        16.0840   -6.2240   11.3330 C.2       1 P34601      0.0000 
     18 OAD        14.7630   -5.9630   10.9570 O.2       1 P34601      0.0000 
     19 NAN        16.8910   -5.1350   11.9840 N.am      1 P34601      0.0000 
     20 CAR        18.3160   -5.3880   12.4260 C.ar      1 P34601      0.0000 
     21 CAJ        19.1340   -4.2500   13.0970 C.ar      1 P34601      0.0000 
     22 CAG        20.5870   -4.5150   13.5420 C.ar      1 P34601      0.0000 
     23 H          23.0557   -6.1144   17.7053 H         1 P34601      0.0000 
     24 H          21.0750   -5.3278   15.9778 H         1 P34601      0.0000 
     25 H          20.9817   -7.0933   15.8581 H         1 P34601      0.0000 
     26 H          23.3258   -6.2533   13.0925 H         1 P34601      0.0000 
     27 H          20.8008   -7.9283   12.5091 H         1 P34601      0.0000 
     28 H          19.6868   -9.4378   11.6046 H         1 P34601      0.0000 
     29 H          18.3517  -11.2756   10.5156 H         1 P34601      0.0000 
     30 H          15.9855  -10.8504    9.7843 H         1 P34601      0.0000 
     31 H          14.9545   -8.5749   10.1513 H         1 P34601      0.0000 
     32 H          16.4876   -4.2374   12.1275 H         1 P34601      0.0000 
     33 H          18.7275   -3.3766   13.2336 H         1 P34601      0.0000 
     34 H          21.1107   -3.8123   13.9641 H         1 P34601      0.0000 
     35 H          22.3463   -8.4077   17.5176 H         1 P34601      0.0000 
     36 H          22.0358   -7.8670   19.0000 H         1 P34601      0.0000 
     37 H          20.8398   -8.0333   17.9378 H         1 P34601      0.0000 
     38 H          21.4024   -5.4863   19.3360 H         1 P34601      0.0000 
     39 H          21.3141   -4.4980   18.0704 H         1 P34601      0.0000 
     40 H          20.2091   -5.6491   18.2704 H         1 P34601      0.0000 
@<TRIPOS>BOND
     1    2    1 1    
     2   35    1 1    
     3   36    1 1    
     4   37    1 1    
     5    3    2 1    
     6    4    2 1    
     7   23    2 1    
     8   38    3 1    
     9   39    3 1    
    10   40    3 1    
    11    5    4 1    
    12   24    4 1    
    13   25    4 1    
    14    6    5 2    
    15    7    5 am   
    16    8    7 1    
    17   26    7 1    
    18    9    8 ar   
    19   22    8 ar   
    20   10    9 ar   
    21   27    9 1    
    22   11   10 1    
    23   20   10 ar   
    24   12   11 ar   
    25   16   11 ar   
    26   13   12 ar   
    27   28   12 1    
    28   14   13 ar   
    29   29   13 1    
    30   15   14 ar   
    31   30   14 1    
    32   16   15 ar   
    33   31   15 1    
    34   17   16 1    
    35   18   17 2    
    36   19   17 am   
    37   20   19 1    
    38   32   19 1    
    39   21   20 ar   
    40   22   21 ar   
    41   33   21 1    
    42   34   22 1    
@<TRIPOS>SUBSTRUCTURE
     1 P34601      1 GROUP   
@<TRIPOS>SET

