#    Name: 4gkv_NAD_1_INTS_M
#    Modification time : Mon Mar 24 22:26:05 2014

@<TRIPOS>MOLECULE
4gkv_NAD_1_INTS_M
  119     0    12     0     0
SMALL
NO_CHARGES


@<TRIPOS>ATOM
      1 N          19.0780   30.3995   21.2730 N.am      2 SEC2        0.0000 
      2 N          19.5310   31.7780   21.4770 N.am     10 SEL2        0.0000 
      3 N          18.6250   29.0210   21.0690 N.am      6 SEP2        0.0000 
      4 N          18.0600   31.7775   21.4985 N.am      2 SEC2        0.0000 
      5 N          16.5890   31.7770   21.5200 N.am      6 SEP2        0.0000 
      6 N          21.5140   34.5275   22.8855 N.am      2 SEC2        0.0000 
      7 N          20.2390   33.7920   22.8300 N.am     10 SEL2        0.0000 
      8 N          22.7890   35.2630   22.9410 N.am      6 SEP2        0.0000 
      9 CA         22.2830   32.7690   25.5845 C.3       4 GLC5        0.0000 
     10 CA         20.3360   31.9680   25.1330 C.3      12 GLL5        0.0000 
     11 CA         24.2300   33.5700   26.0360 C.3       8 GLP5        0.0000 
     12 CA         19.5410   29.5475   27.3965 C.3       4 GLC5        0.0000 
     13 CA         19.5120   31.2930   26.2370 C.3      12 GLL5        0.0000 
     14 CA         19.5700   27.8020   28.5560 C.3       8 GLP5        0.0000 
     15 N          15.9825   31.0845   25.2345 N.am      2 SEC2        0.0000 
     16 N          17.0540   31.0400   26.3340 N.am     10 SEL2        0.0000 
     17 N          14.9110   31.1290   24.1350 N.am      6 SEP2        0.0000 
     18 O          16.7025   30.2410   27.3775 O.2       1 ALC1        0.0000 
     19 O          17.0540   31.0400   26.3340 O.2       9 ALL1        0.0000 
     20 O          16.3510   29.4420   28.4210 O.2       5 ALP1        0.0000 
     21 O          16.4060   31.8615   29.1115 O.2       1 ALC1        0.0000 
     22 O          16.9090   32.7670   28.2980 O.2       9 ALL1        0.0000 
     23 O          15.9030   30.9560   29.9250 O.2       5 ALP1        0.0000 
     24 O          16.6300   31.1045   28.3595 O.2       1 ALC1        0.0000 
     25 CA         19.3280   29.7390   28.4985 C.3       4 GLC5        0.0000 
     26 CA         19.0860   31.6760   28.4410 C.3      12 GLL5        0.0000 
     27 CA         18.6140   32.2070   33.7765 C.3       4 GLC5        0.0000 
     28 CA         20.2550   31.6600   33.1580 C.3      12 GLL5        0.0000 
     29 CA         16.9730   32.7540   34.3950 C.3       8 GLP5        0.0000 
     30 CA         21.8250   30.2905   33.3465 C.3       4 GLC5        0.0000 
     31 CA         23.3950   28.9210   33.5350 C.3       8 GLP5        0.0000 
     32 CA         19.5515   28.7105   30.4345 C.3       4 GLC5        0.0000 
     33 CA         19.5330   29.6190   32.3130 C.3      12 GLL5        0.0000 
     34 CA         17.7735   29.1415   32.0900 C.3       4 GLC5        0.0000 
     35 CA         16.0140   28.6640   31.8670 C.3       8 GLP5        0.0000 
     36 CA         21.1200   29.6555   31.2800 C.3       4 GLC5        0.0000 
     37 CA         22.7070   29.6920   30.2470 C.3       8 GLP5        0.0000 
     38 CA         21.4640   29.2700   32.9240 C.3       4 GLC5        0.0000 
     39 CA         19.5940   29.5970   29.7050 C.3       4 GLC5        0.0000 
     40 CA         19.6180   31.3920   30.8540 C.3      12 GLL5        0.0000 
     41 NZ         21.9305   30.8225   19.1160 N.4       3 LYC4        0.0000 
     42 NZ         22.6580   31.0750   20.2320 N.4      11 LYL4        0.0000 
     43 NZ         21.8160   29.9460   17.0030 N.4       7 LYP4        0.0000 
     44 N          23.4505   32.2975   19.5550 N.am      2 SEC2        0.0000 
     45 N          22.6580   31.0750   20.2320 N.am     10 SEL2        0.0000 
     46 N          24.2430   33.5200   18.8780 N.am      6 SEP2        0.0000 
     47 N          21.9305   30.8225   19.1160 N.am      2 SEC2        0.0000 
     48 N          21.2030   30.5700   18.0000 N.am      6 SEP2        0.0000 
     49 N          22.8515   30.2765   18.7085 N.am      2 SEC2        0.0000 
     50 N          23.0450   29.4780   17.1850 N.am      6 SEP2        0.0000 
     51 N          21.2690   28.2665   21.3385 N.am      2 SEC2        0.0000 
     52 N          21.7650   29.4160   21.9500 N.am     10 SEL2        0.0000 
     53 N          20.7730   27.1170   20.7270 N.am      6 SEP2        0.0000 
     54 N          21.2075   28.8320   23.0390 N.am      2 SEC2        0.0000 
     55 N          20.6500   28.2480   24.1280 N.am      6 SEP2        0.0000 
     56 CA         24.1440   32.1610   22.4940 C.3       4 GLC5        0.0000 
     57 CA         24.1580   30.4420   23.6800 C.3      12 GLL5        0.0000 
     58 CA         24.1300   33.8800   21.3080 C.3       8 GLP5        0.0000 
     59 N          27.6040   33.6910   24.4365 N.am      2 SEC2        0.0000 
     60 N          27.1860   32.3540   24.6220 N.am     10 SEL2        0.0000 
     61 N          28.0220   35.0280   24.2510 N.am      6 SEP2        0.0000 
     62 N          28.2210   31.7540   25.3560 N.am      2 SEC2        0.0000 
     63 N          29.2560   31.1540   26.0900 N.am      6 SEP2        0.0000 
     64 CA         27.6485   32.8175   20.7630 C.3       4 GLC5        0.0000 
     65 CA         27.0100   31.4960   22.3370 C.3      12 GLL5        0.0000 
     66 CA         28.2870   34.1390   19.1890 C.3       8 GLP5        0.0000 
     67 N          28.5565   32.1220   20.8030 N.am      2 SEC2        0.0000 
     68 N          28.0780   32.3900   22.0350 N.am     10 SEL2        0.0000 
     69 N          29.0350   31.8540   19.5710 N.am      6 SEP2        0.0000 
     70 CA         27.7745   29.6305   24.6495 C.3       4 GLC5        0.0000 
     71 CA         27.5460   30.1250   22.7960 C.3      12 GLL5        0.0000 
     72 CA         28.0030   29.1360   26.5030 C.3       8 GLP5        0.0000 
     73 CA         29.5435   30.5190   23.3980 C.3       4 GLC5        0.0000 
     74 CA         31.5410   30.9130   24.0000 C.3       8 GLP5        0.0000 
     75 CA         30.3520   29.7710   22.2070 C.3       4 GLC5        0.0000 
     76 CA         28.9550   28.4000   21.9070 C.3      12 GLL5        0.0000 
     77 CA         31.7490   31.1420   22.5070 C.3       8 GLP5        0.0000 
     78 N          31.6705   24.8170   19.7855 N.am      2 SEC2        0.0000 
     79 N          31.1070   25.9900   20.3120 N.am     10 SEL2        0.0000 
     80 N          32.2340   23.6440   19.2590 N.am      6 SEP2        0.0000 
     81 O          30.2945   27.0205   23.6450 O.2       1 ALC1        0.0000 
     82 O          30.9410   26.3880   22.4740 O.2       9 ALL1        0.0000 
     83 O          29.6480   27.6530   24.8160 O.2       5 ALP1        0.0000 
     84 O          31.7040   25.1590   22.9470 O.2       1 ALC1        0.0000 
     85 O          32.4670   23.9300   23.4200 O.2       5 ALP1        0.0000 
     86 CA         29.9410   26.4630   18.3800 C.3       4 GLC5        0.0000 
     87 CA         28.6320   27.4180   19.7450 C.3      12 GLL5        0.0000 
     88 CA         31.2500   25.5080   17.0150 C.3       8 GLP5        0.0000 
     89 CA         25.7815   27.9310   19.7825 C.3       4 GLC5        0.0000 
     90 CA         27.5500   28.2770   19.5840 C.3      12 GLL5        0.0000 
     91 CA         24.0130   27.5850   19.9810 C.3       8 GLP5        0.0000 
     92 CA         26.2740   27.7505   21.1730 C.3       4 GLC5        0.0000 
     93 CA         27.2110   29.1590   20.6010 C.3      12 GLL5        0.0000 
     94 CA         25.3370   26.3420   21.7450 C.3       8 GLP5        0.0000 
     95 CA         18.3428   30.4481   24.6583 C.3       4 GLC5        0.0000 
     96 CA         17.6580   29.0880   23.3080 C.3       8 GLP5        0.0000 
     97 CA         18.1382   32.7993   31.7565 C.3       4 GLC5        0.0000 
     98 CA         16.4260   33.7860   32.1440 C.3       8 GLP5        0.0000 
     99 CA         21.9310   33.0943   32.6825 C.3       4 GLC5        0.0000 
    100 CA         20.0830   32.2330   31.8840 C.3      12 GLL5        0.0000 
    101 CA         23.6930   34.2420   32.8440 C.3       8 GLP5        0.0000 
    102 CA         21.3003   30.6806   30.9672 C.3       4 GLC5        0.0000 
    103 CA         26.9780   30.1887   25.1850 C.3       4 GLC5        0.0000 
    104 CA         25.6390   30.5740   24.1030 C.3      12 GLL5        0.0000 
    105 CA         25.3843   32.7913   22.1460 C.3       4 GLC5        0.0000 
    106 CA         26.2670   31.9090   23.6310 C.3      12 GLL5        0.0000 
    107 CA         27.6217   33.4223   22.9990 C.3       4 GLC5        0.0000 
    108 CA         28.6050   35.1420   23.0140 C.3       8 GLP5        0.0000 
    109 CA         24.9064   32.3893   24.8986 C.3       4 GLC5        0.0000 
    110 CA         28.5622   26.5140   22.6373 C.3       4 GLC5        0.0000 
    111 CA         27.9650   25.0890   23.8520 C.3       8 GLP5        0.0000 
    112 CA         28.5650   25.6755   20.4672 C.3       4 GLC5        0.0000 
    113 CA         29.3640   27.4780   20.9380 C.3      12 GLL5        0.0000 
    114 CA         28.1320   23.9030   20.5930 C.3       8 GLP5        0.0000 
    115 CA         27.9395   27.6883   17.8867 C.3       4 GLC5        0.0000 
    116 CA         27.7880   27.5290   16.1090 C.3       8 GLP5        0.0000 
    117 CA         27.1164   27.0102   21.1644 C.3       4 GLC5        0.0000 
    118 CA         26.6442   29.8720   18.9047 C.3       4 GLC5        0.0000 
    119 CA         25.9080   31.0260   17.7170 C.3       8 GLP5        0.0000 
@<TRIPOS>BOND
@<TRIPOS>SUBSTRUCTURE
     1 ALC1       18 GROUP        1 X    ALC  0     ROOT ALC X 1
     2 SEC2        1 GROUP        1 X    SEC  0     **** SEC X 2
     3 LYC4       41 GROUP        1 X    LYC  0     **** LYC X 4
     4 GLC5        9 GROUP        1 X    GLC  0     **** GLC X 6
     5 ALP1       20 GROUP        1 Y    ALP  0     ROOT ALP Y 8
     6 SEP2        3 GROUP        1 Y    SEP  0     **** SEP Y 9
     7 LYP4       43 GROUP        1 Y    LYP  0     **** LYP Y 11
     8 GLP5       11 GROUP        1 Y    GLP  0     **** GLP Y 13
     9 ALL1       19 GROUP        1 Z    ALL  0     ROOT ALL Z 15
    10 SEL2        2 GROUP        1 Z    SEL  0     **** SEL Z 16
    11 LYL4       42 GROUP        1 Z    LYL  0     **** LYL Z 18
    12 GLL5       10 GROUP        1 Z    GLL  0     **** GLL Z 20
@<TRIPOS>SET

