#    Name: 4gkv_NAD_1_ligand
#    Modification time : Mon Mar 24 22:26:05 2014

@<TRIPOS>MOLECULE
4gkv_NAD_1_ligand
   70    74     1     0     0
SMALL
NO_CHARGES


@<TRIPOS>ATOM
      1 PA         20.3380   32.3030   22.6440 P.3       1 NAD401      0.0000 
      2 O1A        19.5310   31.7780   21.4770 O.co2     1 NAD401      0.0000 
      3 O2A        20.2390   33.7920   22.8300 O.co2     1 NAD401      0.0000 
      4 O5B        19.7560   31.5110   23.9260 O.3       1 NAD401      0.0000 
      5 C5B        20.3360   31.9680   25.1330 C.3       1 NAD401      0.0000 
      6 C4B        19.5120   31.2930   26.2370 C.3       1 NAD401      0.0000 
      7 O4B        20.1620   31.4540   27.5070 O.3       1 NAD401      0.0000 
      8 C3B        18.1310   31.9860   26.3320 C.3       1 NAD401      0.0000 
      9 O3B        17.0540   31.0400   26.3340 O.3       1 NAD401      0.0000 
     10 C2B        18.2050   32.7080   27.7090 C.3       1 NAD401      0.0000 
     11 O2B        16.9090   32.7670   28.2980 O.3       1 NAD401      0.0000 
     12 C1B        19.0860   31.6760   28.4410 C.3       1 NAD401      0.0000 
     13 N9A        19.5480   32.1690   29.7350 N.pl3     1 NAD401      0.0000 
     14 C8A        19.9380   33.4350   30.0720 C.2       1 NAD401      0.0000 
     15 N7A        20.2580   33.4660   31.3380 N.2       1 NAD401      0.0000 
     16 C5A        20.0830   32.2330   31.8840 C.ar      1 NAD401      0.0000 
     17 C6A        20.2550   31.6600   33.1580 C.ar      1 NAD401      0.0000 
     18 N6A        20.7090   32.4160   34.2280 N.pl3     1 NAD401      0.0000 
     19 N1A        19.9710   30.3640   33.3120 N.ar      1 NAD401      0.0000 
     20 C2A        19.5330   29.6190   32.3130 C.ar      1 NAD401      0.0000 
     21 N3A        19.3540   30.1120   31.1070 N.ar      1 NAD401      0.0000 
     22 C4A        19.6180   31.3920   30.8540 C.ar      1 NAD401      0.0000 
     23 O3         21.9370   32.0270   22.5430 O.3       1 NAD401      0.0000 
     24 PN         22.5300   30.7360   21.7430 P.3       1 NAD401      0.0000 
     25 O1N        22.6580   31.0750   20.2320 O.co2     1 NAD401      0.0000 
     26 O2N        21.7650   29.4160   21.9500 O.co2     1 NAD401      0.0000 
     27 O5D        24.0570   30.6310   22.2660 O.3       1 NAD401      0.0000 
     28 C5D        24.1580   30.4420   23.6800 C.3       1 NAD401      0.0000 
     29 C4D        25.6390   30.5740   24.1030 C.3       1 NAD401      0.0000 
     30 O4D        26.4130   29.5320   23.4640 O.3       1 NAD401      0.0000 
     31 C3D        26.2670   31.9090   23.6310 C.3       1 NAD401      0.0000 
     32 O3D        27.1860   32.3540   24.6220 O.3       1 NAD401      0.0000 
     33 C2D        27.0100   31.4960   22.3370 C.3       1 NAD401      0.0000 
     34 O2D        28.0780   32.3900   22.0350 O.3       1 NAD401      0.0000 
     35 C1D        27.5460   30.1250   22.7960 C.3       1 NAD401      0.0000 
     36 N1N        27.9230   29.2060   21.7110 N.pl3     1 NAD401      0.0000 
     37 C2N        28.9550   28.4000   21.9070 C.ar      1 NAD401      0.0000 
     38 C3N        29.3640   27.4780   20.9380 C.ar      1 NAD401      0.0000 
     39 C7N        30.5280   26.5840   21.2050 C.2       1 NAD401      0.0000 
     40 O7N        31.1070   25.9900   20.3120 O.2       1 NAD401      0.0000 
     41 N7N        30.9410   26.3880   22.4740 N.am      1 NAD401      0.0000 
     42 C4N        28.6320   27.4180   19.7450 C.ar      1 NAD401      0.0000 
     43 C5N        27.5500   28.2770   19.5840 C.ar      1 NAD401      0.0000 
     44 C6N        27.2110   29.1590   20.6010 C.ar      1 NAD401      0.0000 
     45 H          20.2469   33.0335   25.2599 H         1 NAD401      0.0000 
     46 H          21.3597   31.6545   25.2473 H         1 NAD401      0.0000 
     47 H          19.3571   30.2743   25.9899 H         1 NAD401      0.0000 
     48 H          18.0724   32.7214   25.5862 H         1 NAD401      0.0000 
     49 H          18.7201   33.5790   27.5982 H         1 NAD401      0.0000 
     50 H          18.4958   30.7824   28.5380 H         1 NAD401      0.0000 
     51 H          19.9617   34.1780   29.4383 H         1 NAD401      0.0000 
     52 H          20.8249   31.9285   35.0934 H         1 NAD401      0.0000 
     53 H          20.8812   33.3833   34.0417 H         1 NAD401      0.0000 
     54 H          19.3197   28.5914   32.4916 H         1 NAD401      0.0000 
     55 H          23.8176   29.4515   23.9870 H         1 NAD401      0.0000 
     56 H          23.5915   31.1913   24.2357 H         1 NAD401      0.0000 
     57 H          25.7175   30.5162   25.1592 H         1 NAD401      0.0000 
     58 H          25.5053   32.5697   23.3937 H         1 NAD401      0.0000 
     59 H          26.3069   31.3407   21.5910 H         1 NAD401      0.0000 
     60 H          28.3320   30.2767   23.4865 H         1 NAD401      0.0000 
     61 H          29.5023   28.4289   22.8036 H         1 NAD401      0.0000 
     62 H          30.4288   26.8724   23.1832 H         1 NAD401      0.0000 
     63 H          31.7227   25.7757   22.5927 H         1 NAD401      0.0000 
     64 H          28.8899   26.7589   19.0152 H         1 NAD401      0.0000 
     65 H          27.0037   28.2579   18.7140 H         1 NAD401      0.0000 
     66 H          26.3815   29.7767   20.4571 H         1 NAD401      0.0000 
     67 H          17.0732   30.6281   27.2450 H         1 NAD401      0.0000 
     68 H          16.8300   31.9265   28.8341 H         1 NAD401      0.0000 
     69 H          28.0671   32.4079   24.1521 H         1 NAD401      0.0000 
     70 H          27.6386   33.1876   21.6217 H         1 NAD401      0.0000 
@<TRIPOS>BOND
     1    2    1 ar   
     2    3    1 ar   
     3    4    1 1    
     4   23    1 1    
     5    5    4 1    
     6    6    5 1    
     7   45    5 1    
     8   46    5 1    
     9    7    6 1    
    10    8    6 1    
    11   47    6 1    
    12   12    7 1    
    13    9    8 1    
    14   10    8 1    
    15   48    8 1    
    16   67    9 1    
    17   11   10 1    
    18   12   10 1    
    19   49   10 1    
    20   68   11 1    
    21   13   12 1    
    22   50   12 1    
    23   14   13 1    
    24   22   13 1    
    25   15   14 2    
    26   51   14 1    
    27   16   15 1    
    28   17   16 ar   
    29   22   16 ar   
    30   18   17 1    
    31   19   17 ar   
    32   52   18 1    
    33   53   18 1    
    34   20   19 ar   
    35   21   20 ar   
    36   54   20 1    
    37   22   21 ar   
    38   24   23 1    
    39   25   24 ar   
    40   26   24 ar   
    41   27   24 1    
    42   28   27 1    
    43   29   28 1    
    44   55   28 1    
    45   56   28 1    
    46   30   29 1    
    47   31   29 1    
    48   57   29 1    
    49   35   30 1    
    50   32   31 1    
    51   33   31 1    
    52   58   31 1    
    53   69   32 1    
    54   34   33 1    
    55   35   33 1    
    56   59   33 1    
    57   70   34 1    
    58   36   35 1    
    59   60   35 1    
    60   37   36 ar   
    61   44   36 ar   
    62   38   37 ar   
    63   61   37 1    
    64   39   38 1    
    65   42   38 ar   
    66   40   39 2    
    67   41   39 am   
    68   62   41 1    
    69   63   41 1    
    70   43   42 ar   
    71   64   42 1    
    72   44   43 ar   
    73   65   43 1    
    74   66   44 1    
@<TRIPOS>SUBSTRUCTURE
     1 NAD401      1 GROUP   
@<TRIPOS>SET

