#    Name: 2zbw_FAD_2_INTS_M
#    Modification time : Tue Mar 25 10:33:02 2014

@<TRIPOS>MOLECULE
2zbw_FAD_2_INTS_M
  125     0     9     0     0
SMALL
NO_CHARGES


@<TRIPOS>ATOM
      1 N          14.2105   25.4405   77.6095 N.am      2 SEC2        0.0000 
      2 N          12.9340   25.0620   78.2000 N.am      8 SEL2        0.0000 
      3 N          15.4870   25.8190   77.0190 N.am      5 SEP2        0.0000 
      4 N          11.9685   28.1605   77.7425 N.am      2 SEC2        0.0000 
      5 N          11.7360   27.0440   77.0580 N.am      8 SEL2        0.0000 
      6 N          12.2010   29.2770   78.4270 N.am      5 SEP2        0.0000 
      7 CA          8.4880   25.0750   74.8130 C.3       3 GLC5        0.0000 
      8 CA         10.4540   24.8590   75.3010 C.3       9 GLL5        0.0000 
      9 CA          6.5220   25.2910   74.3250 C.3       6 GLP5        0.0000 
     10 CA          9.3575   26.2280   76.0580 C.3       3 GLC5        0.0000 
     11 CA          8.2610   27.5970   76.8150 C.3       6 GLP5        0.0000 
     12 CA          9.8740   22.4990   73.7035 C.3       3 GLC5        0.0000 
     13 CA         10.8660   24.0780   74.0950 C.3       9 GLL5        0.0000 
     14 CA          8.8820   20.9200   73.3120 C.3       6 GLP5        0.0000 
     15 CA         13.5460   24.2115   74.5450 C.3       3 GLC5        0.0000 
     16 CA         12.0260   24.6860   73.2640 C.3       9 GLL5        0.0000 
     17 CA         15.0660   23.7370   75.8260 C.3       6 GLP5        0.0000 
     18 O          12.7135   22.7105   72.6345 O.2       1 ALC1        0.0000 
     19 O          13.1430   23.8480   73.0810 O.2       7 ALL1        0.0000 
     20 O          12.2840   21.5730   72.1880 O.2       4 ALP1        0.0000 
     21 CA         10.8225   26.5125   70.6195 C.3       3 GLC5        0.0000 
     22 CA         11.3490   25.1160   71.9650 C.3       9 GLL5        0.0000 
     23 CA         10.2960   27.9090   69.2740 C.3       6 GLP5        0.0000 
     24 N          12.4250   26.3885   70.0815 N.am      2 SEC2        0.0000 
     25 N          12.1470   25.1280   70.7980 N.am      8 SEL2        0.0000 
     26 N          12.7030   27.6490   69.3650 N.am      5 SEP2        0.0000 
     27 O          12.5310   23.7805   70.5360 O.2       1 ALC1        0.0000 
     28 O          12.1470   25.1280   70.7980 O.2       7 ALL1        0.0000 
     29 O          12.9150   22.4330   70.2740 O.2       4 ALP1        0.0000 
     30 CA          9.5185   22.5450   72.5890 C.3       3 GLC5        0.0000 
     31 CA         10.1550   24.1700   71.8660 C.3       9 GLL5        0.0000 
     32 CA         10.7660   23.6700   69.8585 C.3       3 GLC5        0.0000 
     33 CA         11.3770   23.1700   67.8510 C.3       6 GLP5        0.0000 
     34 CA          6.5180   25.3455   71.3840 C.3       3 GLC5        0.0000 
     35 CA          7.4880   24.8250   69.4790 C.3       9 GLL5        0.0000 
     36 CA          5.5480   25.8660   73.2890 C.3       6 GLP5        0.0000 
     37 CA          7.5575   24.6530   66.6720 C.3       3 GLC5        0.0000 
     38 CA          6.7530   24.3440   68.3170 C.3       9 GLL5        0.0000 
     39 CA          8.3620   24.9620   65.0270 C.3       6 GLP5        0.0000 
     40 CA          5.7130   22.9130   67.3525 C.3       3 GLC5        0.0000 
     41 CA          4.6730   21.4820   66.3880 C.3       6 GLP5        0.0000 
     42 O           5.1735   24.5785   66.4135 O.2       1 ALC1        0.0000 
     43 O           5.7750   25.0550   67.7370 O.2       7 ALL1        0.0000 
     44 O           4.5720   24.1020   65.0900 O.2       4 ALP1        0.0000 
     45 N           6.9045   22.6410   66.5310 N.am      2 SEC2        0.0000 
     46 N           7.0840   23.1260   67.8080 N.am      8 SEL2        0.0000 
     47 N           6.7250   22.1560   65.2540 N.am      5 SEP2        0.0000 
     48 CA          6.6245   22.3135   69.6045 C.3       3 GLC5        0.0000 
     49 CA          8.0850   22.4110   68.4030 C.3       9 GLL5        0.0000 
     50 CA          5.1640   22.2160   70.8060 C.3       6 GLP5        0.0000 
     51 CA          7.9750   20.4530   67.5135 C.3       3 GLC5        0.0000 
     52 CA          7.8650   18.4950   66.6240 C.3       6 GLP5        0.0000 
     53 CA          9.6880   21.3955   68.6785 C.3       3 GLC5        0.0000 
     54 CA         11.2910   20.3800   68.9540 C.3       6 GLP5        0.0000 
     55 CA          9.7310   22.7905   68.1270 C.3       3 GLC5        0.0000 
     56 CA          8.5550   22.4740   66.4955 C.3       3 GLC5        0.0000 
     57 CA          9.0250   22.5370   64.5880 C.3       6 GLP5        0.0000 
     58 CA          6.3790   21.9465   67.3955 C.3       3 GLC5        0.0000 
     59 CA          9.9210   23.5945   68.9105 C.3       3 GLC5        0.0000 
     60 CA          8.4650   24.0190   69.9700 C.3       9 GLL5        0.0000 
     61 N          12.6900   27.0355   87.4045 N.am      2 SEC2        0.0000 
     62 N          13.7870   27.6620   87.9080 N.am      8 SEL2        0.0000 
     63 N          11.5930   26.4090   86.9010 N.am      5 SEP2        0.0000 
     64 O          15.9515   28.0460   89.2290 O.2       1 ALC1        0.0000 
     65 O          15.9100   28.4880   87.9340 O.2       7 ALL1        0.0000 
     66 O          15.9930   27.6040   90.5240 O.2       4 ALP1        0.0000 
     67 N          18.3385   29.2625   89.3045 N.am      2 SEC2        0.0000 
     68 N          18.0640   29.2920   88.0310 N.am      8 SEL2        0.0000 
     69 N          18.6130   29.2330   90.5780 N.am      5 SEP2        0.0000 
     70 N          19.0485   30.2035   88.4955 N.am      2 SEC2        0.0000 
     71 N          20.0330   31.1150   88.9600 N.am      5 SEP2        0.0000 
     72 N          19.1175   30.6425   85.7265 N.am      2 SEC2        0.0000 
     73 N          17.8470   30.3790   85.4010 N.am      8 SEL2        0.0000 
     74 N          20.3880   30.9060   86.0520 N.am      5 SEP2        0.0000 
     75 CA         19.7475   33.1375   84.5430 C.3       3 GLC5        0.0000 
     76 CA         18.6680   31.5520   83.4220 C.3       9 GLL5        0.0000 
     77 CA         20.8270   34.7230   85.6640 C.3       6 GLP5        0.0000 
     78 CA         19.6755   30.8210   81.2220 C.3       3 GLC5        0.0000 
     79 CA         19.7040   32.7670   81.5020 C.3       9 GLL5        0.0000 
     80 CA         19.6470   28.8750   80.9420 C.3       6 GLP5        0.0000 
     81 CA         17.1540   31.8310   78.2445 C.3       3 GLC5        0.0000 
     82 CA         17.0390   32.3640   80.0350 C.3       9 GLL5        0.0000 
     83 CA         17.2690   31.2980   76.4540 C.3       6 GLP5        0.0000 
     84 CA         17.7510   30.3990   80.7815 C.3       3 GLC5        0.0000 
     85 CA         18.4630   28.4340   81.5280 C.3       6 GLP5        0.0000 
     86 CA         15.0375   26.5495   82.2325 C.3       3 GLC5        0.0000 
     87 CA         13.8840   28.2600   82.9600 C.3       9 GLL5        0.0000 
     88 CA         16.1910   24.8390   81.5050 C.3       6 GLP5        0.0000 
     89 N          16.0950   27.8210   82.6635 N.am      2 SEC2        0.0000 
     90 N          14.8930   28.1430   81.9510 N.am      8 SEL2        0.0000 
     91 N          17.2970   27.4990   83.3760 N.am      5 SEP2        0.0000 
     92 O          10.2835   28.5620   82.9530 O.2       1 ALC1        0.0000 
     93 O          11.5520   28.1490   83.4620 O.2       7 ALL1        0.0000 
     94 O           9.0150   28.9750   82.4440 O.2       4 ALP1        0.0000 
     95 O          10.8970   29.0255   82.1635 O.2       1 ALC1        0.0000 
     96 O          10.2420   29.9020   80.8650 O.2       4 ALP1        0.0000 
     97 CA         14.2870   25.7125   81.6530 C.3       3 GLC5        0.0000 
     98 CA         12.3830   26.5860   81.8010 C.3       9 GLL5        0.0000 
     99 CA          9.5530   27.7130   80.7525 C.3       3 GLC5        0.0000 
    100 CA         11.0110   26.3350   81.2590 C.3       9 GLL5        0.0000 
    101 CA          8.0950   29.0910   80.2460 C.3       6 GLP5        0.0000 
    102 N          10.2595   21.9585   80.3010 N.am      2 SEC2        0.0000 
    103 N          10.2540   23.1320   79.3930 N.am      8 SEL2        0.0000 
    104 N          10.2650   20.7850   81.2090 N.am      5 SEP2        0.0000 
    105 N           8.9360   22.5780   79.8315 N.am      2 SEC2        0.0000 
    106 N           7.6180   22.0240   80.2700 N.am      5 SEP2        0.0000 
    107 N           7.6985   26.1240   80.5850 N.am      2 SEC2        0.0000 
    108 N           8.6420   24.9900   79.9890 N.am      8 SEL2        0.0000 
    109 N           6.7550   27.2580   81.1810 N.am      5 SEP2        0.0000 
    110 CA         13.2332   25.8935   72.5553 C.3       3 GLC5        0.0000 
    111 CA         14.7790   26.8860   72.4960 C.3       6 GLP5        0.0000 
    112 CA          6.4784   23.2589   70.1200 C.3       3 GLC5        0.0000 
    113 CA          8.7144   25.9419   68.6820 C.3       3 GLC5        0.0000 
    114 CA          9.6360   27.5820   67.9300 C.3       6 GLP5        0.0000 
    115 CA         16.7062   32.2542   84.6337 C.3       3 GLC5        0.0000 
    116 CA         16.3450   30.6570   83.4280 C.3       9 GLL5        0.0000 
    117 CA         16.4310   33.7520   85.5010 C.3       6 GLP5        0.0000 
    118 CA         17.6352   33.1422   83.5860 C.3       3 GLC5        0.0000 
    119 CA         16.6810   34.4880   84.3930 C.3       6 GLP5        0.0000 
    120 CA         16.7110   32.9982   83.0888 C.3       3 GLC5        0.0000 
    121 CA         17.2810   31.8590   81.4480 C.3       9 GLL5        0.0000 
    122 CA         12.4365   24.5457   81.5430 C.3       3 GLC5        0.0000 
    123 CA         13.1760   22.6310   81.5560 C.3       6 GLP5        0.0000 
    124 CA         13.3891   26.3207   83.8799 C.3       3 GLC5        0.0000 
    125 CA         13.9920   25.2810   85.5210 C.3       6 GLP5        0.0000 
@<TRIPOS>BOND
@<TRIPOS>SUBSTRUCTURE
     1 ALC1       18 GROUP        1 X    ALC  0     ROOT ALC X 1
     2 SEC2        1 GROUP        1 X    SEC  0     **** SEC X 2
     3 GLC5        7 GROUP        1 X    GLC  0     **** GLC X 6
     4 ALP1       20 GROUP        1 Y    ALP  0     ROOT ALP Y 8
     5 SEP2        3 GROUP        1 Y    SEP  0     **** SEP Y 9
     6 GLP5        9 GROUP        1 Y    GLP  0     **** GLP Y 13
     7 ALL1       19 GROUP        1 Z    ALL  0     ROOT ALL Z 15
     8 SEL2        2 GROUP        1 Z    SEL  0     **** SEL Z 16
     9 GLL5        8 GROUP        1 Z    GLL  0     **** GLL Z 20
@<TRIPOS>SET

