#    Name: 2zbw_FAD_2_ligand
#    Modification time : Tue Mar 25 10:33:02 2014

@<TRIPOS>MOLECULE
2zbw_FAD_2_ligand
   84    89     1     0     0
SMALL
NO_CHARGES


@<TRIPOS>ATOM
      1 PA         11.7630   25.6240   77.4890 P.3       1 FAD1001     0.0000 
      2 O1A        12.9340   25.0620   78.2000 O.co2     1 FAD1001     0.0000 
      3 O2A        11.7360   27.0440   77.0580 O.co2     1 FAD1001     0.0000 
      4 O5B        11.5210   24.6620   76.2570 O.3       1 FAD1001     0.0000 
      5 C5B        10.4540   24.8590   75.3010 C.3       1 FAD1001     0.0000 
      6 C4B        10.8660   24.0780   74.0950 C.3       1 FAD1001     0.0000 
      7 O4B         9.7410   23.8590   73.1960 O.3       1 FAD1001     0.0000 
      8 C3B        12.0260   24.6860   73.2640 C.3       1 FAD1001     0.0000 
      9 O3B        13.1430   23.8480   73.0810 O.3       1 FAD1001     0.0000 
     10 C2B        11.3490   25.1160   71.9650 C.3       1 FAD1001     0.0000 
     11 O2B        12.1470   25.1280   70.7980 O.3       1 FAD1001     0.0000 
     12 C1B        10.1550   24.1700   71.8660 C.3       1 FAD1001     0.0000 
     13 N9A         9.0420   24.6720   71.0550 N.pl3     1 FAD1001     0.0000 
     14 C8A         8.3460   25.8480   71.1480 C.2       1 FAD1001     0.0000 
     15 N7A         7.4040   25.9910   70.2280 N.2       1 FAD1001     0.0000 
     16 C5A         7.4880   24.8250   69.4790 C.ar      1 FAD1001     0.0000 
     17 C6A         6.7530   24.3440   68.3170 C.ar      1 FAD1001     0.0000 
     18 N6A         5.7750   25.0550   67.7370 N.pl3     1 FAD1001     0.0000 
     19 N1A         7.0840   23.1260   67.8080 N.ar      1 FAD1001     0.0000 
     20 C2A         8.0850   22.4110   68.4030 C.ar      1 FAD1001     0.0000 
     21 N3A         8.8350   22.7580   69.4740 N.ar      1 FAD1001     0.0000 
     22 C4A         8.4650   24.0190   69.9700 C.ar      1 FAD1001     0.0000 
     23 N1         14.5000   28.7850   86.0400 N.2       1 FAD1001     0.0000 
     24 C2         14.6830   28.2920   87.2940 C.2       1 FAD1001     0.0000 
     25 O2         13.7870   27.6620   87.9080 O.2       1 FAD1001     0.0000 
     26 N3         15.9100   28.4880   87.9340 N.am      1 FAD1001     0.0000 
     27 C4         17.0070   29.1730   87.3720 C.2       1 FAD1001     0.0000 
     28 O4         18.0640   29.2920   88.0310 O.2       1 FAD1001     0.0000 
     29 C4X        16.8010   29.6810   86.0580 C.2       1 FAD1001     0.0000 
     30 N5         17.8470   30.3790   85.4010 N.2       1 FAD1001     0.0000 
     31 C5X        17.6180   30.8560   84.1050 C.ar      1 FAD1001     0.0000 
     32 C6         18.6680   31.5520   83.4220 C.ar      1 FAD1001     0.0000 
     33 C7         18.5110   32.0410   82.1360 C.ar      1 FAD1001     0.0000 
     34 C7M        19.7040   32.7670   81.5020 C.3       1 FAD1001     0.0000 
     35 C8         17.2810   31.8590   81.4480 C.ar      1 FAD1001     0.0000 
     36 C8M        17.0390   32.3640   80.0350 C.3       1 FAD1001     0.0000 
     37 C9         16.2010   31.1580   82.1210 C.ar      1 FAD1001     0.0000 
     38 C9A        16.3450   30.6570   83.4280 C.ar      1 FAD1001     0.0000 
     39 N10        15.2940   29.9410   84.1390 N.pl3     1 FAD1001     0.0000 
     40 C10        15.5320   29.4640   85.4290 C.2       1 FAD1001     0.0000 
     41 C1'        13.9660   29.6750   83.5490 C.3       1 FAD1001     0.0000 
     42 C2'        13.8840   28.2600   82.9600 C.3       1 FAD1001     0.0000 
     43 O2'        14.8930   28.1430   81.9510 O.3       1 FAD1001     0.0000 
     44 C3'        12.4950   28.0100   82.3930 C.3       1 FAD1001     0.0000 
     45 O3'        11.5520   28.1490   83.4620 O.3       1 FAD1001     0.0000 
     46 C4'        12.3830   26.5860   81.8010 C.3       1 FAD1001     0.0000 
     47 O4'        13.3300   26.4320   80.7340 O.3       1 FAD1001     0.0000 
     48 C5'        11.0110   26.3350   81.2590 C.3       1 FAD1001     0.0000 
     49 O5'        10.9990   24.9930   80.7630 O.3       1 FAD1001     0.0000 
     50 P          10.0170   24.5540   79.6200 P.3       1 FAD1001     0.0000 
     51 O1P        10.2540   23.1320   79.3930 O.co2     1 FAD1001     0.0000 
     52 O2P         8.6420   24.9900   79.9890 O.co2     1 FAD1001     0.0000 
     53 O3P        10.4180   25.3350   78.2960 O.3       1 FAD1001     0.0000 
     54 H          10.3540   25.8991   75.0348 H         1 FAD1001     0.0000 
     55 H           9.5186   24.4727   75.6732 H         1 FAD1001     0.0000 
     56 H          11.2243   23.0780   74.4296 H         1 FAD1001     0.0000 
     57 H          12.2873   25.6283   73.7841 H         1 FAD1001     0.0000 
     58 H          10.9043   26.1116   72.1745 H         1 FAD1001     0.0000 
     59 H          10.5445   23.2363   71.3998 H         1 FAD1001     0.0000 
     60 H           8.5495   26.5260   71.8586 H         1 FAD1001     0.0000 
     61 H           5.6061   25.9638   68.1185 H         1 FAD1001     0.0000 
     62 H           5.3021   24.6128   66.9749 H         1 FAD1001     0.0000 
     63 H           8.3034   21.4368   67.9533 H         1 FAD1001     0.0000 
     64 H          16.0290   28.0968   88.9088 H         1 FAD1001     0.0000 
     65 H          19.5661   31.6832   83.9240 H         1 FAD1001     0.0000 
     66 H          15.3161   31.0347   81.6127 H         1 FAD1001     0.0000 
     67 H          13.7508   30.3926   82.7479 H         1 FAD1001     0.0000 
     68 H          13.1810   29.7761   84.3084 H         1 FAD1001     0.0000 
     69 H          14.0601   27.5638   83.7673 H         1 FAD1001     0.0000 
     70 H          12.3052   28.7176   81.6130 H         1 FAD1001     0.0000 
     71 H          12.5840   25.8822   82.5934 H         1 FAD1001     0.0000 
     72 H          10.8085   27.0541   80.4689 H         1 FAD1001     0.0000 
     73 H          10.2871   26.4711   82.0589 H         1 FAD1001     0.0000 
     74 H          20.5079   32.1756   81.4392 H         1 FAD1001     0.0000 
     75 H          19.4979   33.0809   80.5752 H         1 FAD1001     0.0000 
     76 H          19.9728   33.5719   82.0311 H         1 FAD1001     0.0000 
     77 H          17.1440   33.3565   79.9722 H         1 FAD1001     0.0000 
     78 H          17.6788   31.9597   79.3814 H         1 FAD1001     0.0000 
     79 H          16.1168   32.1460   79.7155 H         1 FAD1001     0.0000 
     80 H          12.7928   22.9195   73.2042 H         1 FAD1001     0.0000 
     81 H          12.7851   24.3668   70.9132 H         1 FAD1001     0.0000 
     82 H          14.5145   27.5061   81.2793 H         1 FAD1001     0.0000 
     83 H          10.7156   28.4829   83.0273 H         1 FAD1001     0.0000 
     84 H          12.8358   25.9376   80.0189 H         1 FAD1001     0.0000 
@<TRIPOS>BOND
     1    2    1 ar   
     2    3    1 ar   
     3    4    1 1    
     4   53    1 1    
     5    5    4 1    
     6    6    5 1    
     7   54    5 1    
     8   55    5 1    
     9    7    6 1    
    10    8    6 1    
    11   56    6 1    
    12   12    7 1    
    13    9    8 1    
    14   10    8 1    
    15   57    8 1    
    16   80    9 1    
    17   11   10 1    
    18   12   10 1    
    19   58   10 1    
    20   81   11 1    
    21   13   12 1    
    22   59   12 1    
    23   14   13 1    
    24   22   13 1    
    25   15   14 2    
    26   60   14 1    
    27   16   15 1    
    28   17   16 ar   
    29   22   16 ar   
    30   18   17 1    
    31   19   17 ar   
    32   61   18 1    
    33   62   18 1    
    34   20   19 ar   
    35   21   20 ar   
    36   63   20 1    
    37   22   21 ar   
    38   24   23 1    
    39   40   23 2    
    40   25   24 2    
    41   26   24 am   
    42   27   26 am   
    43   64   26 1    
    44   28   27 2    
    45   29   27 1    
    46   30   29 2    
    47   40   29 1    
    48   31   30 1    
    49   32   31 ar   
    50   38   31 ar   
    51   33   32 ar   
    52   65   32 1    
    53   34   33 1    
    54   35   33 ar   
    55   74   34 1    
    56   75   34 1    
    57   76   34 1    
    58   36   35 1    
    59   37   35 ar   
    60   77   36 1    
    61   78   36 1    
    62   79   36 1    
    63   38   37 ar   
    64   66   37 1    
    65   39   38 1    
    66   40   39 1    
    67   41   39 1    
    68   42   41 1    
    69   67   41 1    
    70   68   41 1    
    71   43   42 1    
    72   44   42 1    
    73   69   42 1    
    74   82   43 1    
    75   45   44 1    
    76   46   44 1    
    77   70   44 1    
    78   83   45 1    
    79   47   46 1    
    80   48   46 1    
    81   71   46 1    
    82   84   47 1    
    83   49   48 1    
    84   72   48 1    
    85   73   48 1    
    86   50   49 1    
    87   51   50 ar   
    88   52   50 ar   
    89   53   50 1    
@<TRIPOS>SUBSTRUCTURE
     1 FAD1001     1 GROUP   
@<TRIPOS>SET

