#    Name: 1ywn_LIF_1_INTS_M
#    Modification time : Mon Apr  7 16:18:22 2014

@<TRIPOS>MOLECULE
1ywn_LIF_1_INTS_M
  110     0     9     0     0
SMALL
NO_CHARGES


@<TRIPOS>ATOM
      1 CA          4.3475   42.6070   19.8810 C.3       3 GLC5        0.0000 
      2 CA          4.6410   41.8490   18.2980 C.3       9 GLL5        0.0000 
      3 CA          4.0540   43.3650   21.4640 C.3       6 GLP5        0.0000 
      4 CA          4.3495   40.0660   18.6795 C.3       3 GLC5        0.0000 
      5 CA          4.0580   38.2830   19.0610 C.3       6 GLP5        0.0000 
      6 CA          4.6850   43.4365   19.3280 C.3       3 GLC5        0.0000 
      7 CA          5.3160   43.5080   17.1920 C.3       9 GLL5        0.0000 
      8 CA          5.7715   39.5080   15.9215 C.3       3 GLC5        0.0000 
      9 CA          5.9440   41.5700   16.6620 C.3       9 GLL5        0.0000 
     10 CA          5.5990   37.4460   15.1810 C.3       6 GLP5        0.0000 
     11 CA          7.3090   43.2690   16.7915 C.3       3 GLC5        0.0000 
     12 CA          8.6740   44.9680   16.9210 C.3       6 GLP5        0.0000 
     13 CA          5.0010   39.9265   17.8615 C.3       3 GLC5        0.0000 
     14 CA          4.5145   39.1645   15.4140 C.3       3 GLC5        0.0000 
     15 CA          3.4300   40.8830   15.6470 C.3       9 GLL5        0.0000 
     16 CA          3.7440   39.5830   17.3540 C.3       3 GLC5        0.0000 
     17 O           0.6910   39.2155   13.5080 O.2       1 ALC1        0.0000 
     18 O           1.8040   39.5650   14.3130 O.2       7 ALL1        0.0000 
     19 O          -0.4220   38.8660   12.7030 O.2       4 ALP1        0.0000 
     20 N           2.3260   38.8315   17.2395 N.am      2 SEC2        0.0000 
     21 N           2.6380   38.2020   15.8760 N.am      8 SEL2        0.0000 
     22 N           2.0140   39.4610   18.6030 N.am      5 SEP2        0.0000 
     23 O           0.4985   38.0740   13.4510 O.2       1 ALC1        0.0000 
     24 O           1.4190   37.2820   14.1990 O.2       7 ALL1        0.0000 
     25 CA          2.7960   33.1355   17.6650 C.3       3 GLC5        0.0000 
     26 CA          1.8540   34.1140   16.0970 C.3       9 GLL5        0.0000 
     27 CA          3.7380   32.1570   19.2330 C.3       6 GLP5        0.0000 
     28 CA         -1.7635   33.0060   13.9865 C.3       3 GLC5        0.0000 
     29 CA          0.1820   33.8440   14.4180 C.3       9 GLL5        0.0000 
     30 CA         -3.7090   32.1680   13.5550 C.3       6 GLP5        0.0000 
     31 CA         -1.4700   35.5350   13.0610 C.3       3 GLC5        0.0000 
     32 CA          0.3970   35.1490   14.0510 C.3       9 GLL5        0.0000 
     33 CA         -3.3370   35.9210   12.0710 C.3       6 GLP5        0.0000 
     34 CA         -5.4400   30.0460   16.9415 C.3       3 GLC5        0.0000 
     35 CA         -4.1400   31.5900   17.0170 C.3       9 GLL5        0.0000 
     36 CA         -6.7400   28.5020   16.8660 C.3       6 GLP5        0.0000 
     37 CA         -2.6820   29.1090   16.1585 C.3       3 GLC5        0.0000 
     38 CA         -2.8380   31.1590   16.8950 C.3       9 GLL5        0.0000 
     39 CA         -2.5260   27.0590   15.4220 C.3       6 GLP5        0.0000 
     40 CA         -3.1620   30.9090   15.1450 C.3       3 GLC5        0.0000 
     41 CA         -3.4860   30.6590   13.3950 C.3       6 GLP5        0.0000 
     42 CA         -6.7620   30.5245   17.1950 C.3       3 GLC5        0.0000 
     43 CA         -6.7840   32.5470   17.5240 C.3       9 GLL5        0.0000 
     44 CA         -8.1915   31.5485   16.5670 C.3       3 GLC5        0.0000 
     45 CA         -9.5990   30.5500   15.6100 C.3       6 GLP5        0.0000 
     46 CA         -8.5055   33.2255   17.3865 C.3       3 GLC5        0.0000 
     47 CA        -10.2270   33.9040   17.2490 C.3       6 GLP5        0.0000 
     48 CA          0.3610   28.4665   15.6600 C.3       3 GLC5        0.0000 
     49 CA          0.9640   29.8560   16.9000 C.3       9 GLL5        0.0000 
     50 CA         -0.2420   27.0770   14.4200 C.3       6 GLP5        0.0000 
     51 CA          4.6075   29.5455   14.8915 C.3       3 GLC5        0.0000 
     52 CA          3.0060   30.6780   15.9110 C.3       9 GLL5        0.0000 
     53 CA          6.2090   28.4130   13.8720 C.3       6 GLP5        0.0000 
     54 CA          3.3720   31.4175   17.5720 C.3       3 GLC5        0.0000 
     55 O           4.8965   31.3980   14.4660 O.2       1 ALC1        0.0000 
     56 O           3.7420   31.6120   15.2690 O.2       7 ALL1        0.0000 
     57 O           6.0510   31.1840   13.6630 O.2       4 ALP1        0.0000 
     58 N           4.9590   29.0160   16.2870 N.am      2 SEC2        0.0000 
     59 N           3.5510   29.4970   16.2800 N.am      8 SEL2        0.0000 
     60 N           6.3670   28.5350   16.2940 N.am      5 SEP2        0.0000 
     61 CA          1.3020   27.8080   15.6620 C.3       3 GLC5        0.0000 
     62 CA          2.8460   28.5390   16.9040 C.3       9 GLL5        0.0000 
     63 CA          4.9185   28.4820   17.2655 C.3       3 GLC5        0.0000 
     64 CA          6.9910   28.4250   17.6270 C.3       6 GLP5        0.0000 
     65 CA          3.2920   30.3480   18.0685 C.3       3 GLC5        0.0000 
     66 CA          2.9132   41.8907   18.0870 C.3       3 GLC5        0.0000 
     67 CA          1.0310   41.7240   18.4750 C.3       6 GLP5        0.0000 
     68 CA          7.1785   41.3215   16.3400 C.3       3 GLC5        0.0000 
     69 CA          4.9500   42.2660   17.1000 C.3       9 GLL5        0.0000 
     70 CA          8.9100   40.7250   15.7990 C.3       6 GLP5        0.0000 
     71 CA          6.4944   43.6674   18.3758 C.3       3 GLC5        0.0000 
     72 CA          7.9330   44.5520   19.3060 C.3       6 GLP5        0.0000 
     73 CA          5.8197   43.4518   15.3355 C.3       3 GLC5        0.0000 
     74 CA          6.1010   44.6750   13.7670 C.3       6 GLP5        0.0000 
     75 CA          6.0589   41.4024   19.0823 C.3       3 GLC5        0.0000 
     76 CA          6.7480   40.9910   20.9840 C.3       6 GLP5        0.0000 
     77 CA          4.7462   43.6820   14.8942 C.3       3 GLC5        0.0000 
     78 CA          3.7680   42.1300   16.1740 C.3       9 GLL5        0.0000 
     79 CA          2.3150   41.6153   17.1928 C.3       3 GLC5        0.0000 
     80 CA          2.7118   44.4570   13.8418 C.3       3 GLC5        0.0000 
     81 CA          1.8980   43.1380   15.0300 C.3       9 GLL5        0.0000 
     82 CA          2.9670   45.7210   12.2340 C.3       6 GLP5        0.0000 
     83 CA          1.7437   42.4585   16.9623 C.3       3 GLC5        0.0000 
     84 CA          0.2362   41.1785   12.5595 C.3       3 GLC5        0.0000 
     85 CA          1.5660   41.8970   14.5170 C.3       9 GLL5        0.0000 
     86 CA         -0.5570   40.5200   11.0040 C.3       6 GLP5        0.0000 
     87 CA          3.5625   40.9231   13.4170 C.3       3 GLC5        0.0000 
     88 CA          4.9100   40.4880   11.9640 C.3       6 GLP5        0.0000 
     89 CA          1.4815   41.5252   16.5665 C.3       3 GLC5        0.0000 
     90 CA          2.2980   40.7560   14.7990 C.3       9 GLL5        0.0000 
     91 CA          2.6043   34.5700   13.5817 C.3       3 GLC5        0.0000 
     92 CA          1.3300   35.9900   14.6510 C.3       9 GLL5        0.0000 
     93 CA          3.5150   33.4300   11.9900 C.3       6 GLP5        0.0000 
     94 CA          3.9707   34.9075   15.2978 C.3       3 GLC5        0.0000 
     95 CA          2.0570   35.4300   15.6960 C.3       9 GLL5        0.0000 
     96 CA          5.9860   35.0430   14.6990 C.3       6 GLP5        0.0000 
     97 CA          2.7107   35.8365   17.4072 C.3       3 GLC5        0.0000 
     98 CA          3.4660   36.9010   18.9180 C.3       6 GLP5        0.0000 
     99 CA          2.4467   33.5703   13.8878 C.3       3 GLC5        0.0000 
    100 CA          1.9022   33.9633   13.1122 C.3       3 GLC5        0.0000 
    101 CA         -0.9565   31.0485   14.7157 C.3       3 GLC5        0.0000 
    102 CA          0.7000   31.9510   16.0320 C.3       9 GLL5        0.0000 
    103 CA         -2.0420   30.3720   13.1120 C.3       6 GLP5        0.0000 
    104 CA         -2.8323   32.4637   15.1360 C.3       3 GLC5        0.0000 
    105 CA         -1.8180   32.0870   16.7400 C.3       9 GLL5        0.0000 
    106 CA         -3.8689   32.3345   15.2580 C.3       3 GLC5        0.0000 
    107 CA         -3.4090   33.8810   16.8200 C.3       9 GLL5        0.0000 
    108 CA          2.4061   31.3939   17.8775 C.3       3 GLC5        0.0000 
    109 CA          2.0891   30.3854   14.2497 C.3       3 GLC5        0.0000 
    110 CA          2.0830   29.7290   12.4720 C.3       6 GLP5        0.0000 
@<TRIPOS>BOND
@<TRIPOS>SUBSTRUCTURE
     1 ALC1       17 GROUP        1 X    ALC  0     ROOT ALC X 1
     2 SEC2       20 GROUP        1 X    SEC  0     **** SEC X 2
     3 GLC5        1 GROUP        1 X    GLC  0     **** GLC X 6
     4 ALP1       19 GROUP        1 Y    ALP  0     ROOT ALP Y 8
     5 SEP2       22 GROUP        1 Y    SEP  0     **** SEP Y 9
     6 GLP5        3 GROUP        1 Y    GLP  0     **** GLP Y 13
     7 ALL1       18 GROUP        1 Z    ALL  0     ROOT ALL Z 15
     8 SEL2       21 GROUP        1 Z    SEL  0     **** SEL Z 16
     9 GLL5        2 GROUP        1 Z    GLL  0     **** GLL Z 20
@<TRIPOS>SET

