#    Name: 1ywn_LIF_1_ligand
#    Modification time : Mon Apr  7 16:18:22 2014

@<TRIPOS>MOLECULE
1ywn_LIF_1_ligand
   58    62     1     0     0
SMALL
NO_CHARGES


@<TRIPOS>ATOM
      1 F1          4.6410   41.8490   18.2980 F         1 LIF301      0.0000 
      2 C2          4.9500   42.2660   17.1000 C.3       1 LIF301      0.0000 
      3 F3          5.3160   43.5080   17.1920 F         1 LIF301      0.0000 
      4 F4          5.9440   41.5700   16.6620 F         1 LIF301      0.0000 
      5 C5          3.7680   42.1300   16.1740 C.ar      1 LIF301      0.0000 
      6 C6          3.4300   40.8830   15.6470 C.ar      1 LIF301      0.0000 
      7 C10         3.0150   43.2480   15.8690 C.ar      1 LIF301      0.0000 
      8 C9          1.8980   43.1380   15.0300 C.ar      1 LIF301      0.0000 
      9 C8          1.5660   41.8970   14.5170 C.ar      1 LIF301      0.0000 
     10 F11         0.4930   41.7770   13.7130 F         1 LIF301      0.0000 
     11 C7          2.2980   40.7560   14.7990 C.ar      1 LIF301      0.0000 
     12 N12         1.8040   39.5650   14.3130 N.am      1 LIF301      0.0000 
     13 C13         2.0040   38.3420   14.8260 C.2       1 LIF301      0.0000 
     14 O14         2.6380   38.2020   15.8760 O.2       1 LIF301      0.0000 
     15 N15         1.4190   37.2820   14.1990 N.am      1 LIF301      0.0000 
     16 C16         1.3300   35.9900   14.6510 C.ar      1 LIF301      0.0000 
     17 C17         2.0570   35.4300   15.6960 C.ar      1 LIF301      0.0000 
     18 C18         1.8540   34.1140   16.0970 C.ar      1 LIF301      0.0000 
     19 C19         0.9030   33.3070   15.4740 C.ar      1 LIF301      0.0000 
     20 C20         0.1820   33.8440   14.4180 C.ar      1 LIF301      0.0000 
     21 C21         0.3970   35.1490   14.0510 C.ar      1 LIF301      0.0000 
     22 C22         0.7000   31.9510   16.0320 C.2       1 LIF301      0.0000 
     23 C23        -0.4420   31.4990   16.6070 C.2       1 LIF301      0.0000 
     24 C32        -1.8180   32.0870   16.7400 C.ar      1 LIF301      0.0000 
     25 C33        -2.0930   33.4320   16.6940 C.ar      1 LIF301      0.0000 
     26 C34        -3.4090   33.8810   16.8200 C.ar      1 LIF301      0.0000 
     27 C35        -4.4260   32.9430   16.9900 C.ar      1 LIF301      0.0000 
     28 C36        -4.1400   31.5900   17.0170 C.ar      1 LIF301      0.0000 
     29 C37        -2.8380   31.1590   16.8950 C.ar      1 LIF301      0.0000 
     30 O38        -5.7100   33.4020   17.1220 O.3       1 LIF301      0.0000 
     31 C39        -6.7840   32.5470   17.5240 C.3       1 LIF301      0.0000 
     32 O24        -0.2560   30.1620   17.1170 O.3       1 LIF301      0.0000 
     33 C25         0.9640   29.8560   16.9000 C.ar      1 LIF301      0.0000 
     34 N26         1.5350   28.7010   17.2190 N.ar      1 LIF301      0.0000 
     35 C30         1.6690   30.8600   16.2560 C.ar      1 LIF301      0.0000 
     36 C29         3.0060   30.6780   15.9110 C.ar      1 LIF301      0.0000 
     37 N31         3.7420   31.6120   15.2690 N.pl3     1 LIF301      0.0000 
     38 N28         3.5510   29.4970   16.2800 N.ar      1 LIF301      0.0000 
     39 C27         2.8460   28.5390   16.9040 C.ar      1 LIF301      0.0000 
     40 H           3.9892   40.0557   15.8643 H         1 LIF301      0.0000 
     41 H           3.2683   44.1680   16.2549 H         1 LIF301      0.0000 
     42 H           1.3438   43.9648   14.8061 H         1 LIF301      0.0000 
     43 H           1.1896   39.6391   13.4200 H         1 LIF301      0.0000 
     44 H           0.9699   37.4808   13.2276 H         1 LIF301      0.0000 
     45 H           2.7667   36.0070   16.1874 H         1 LIF301      0.0000 
     46 H           2.4194   33.7244   16.8732 H         1 LIF301      0.0000 
     47 H          -0.5050   33.2652   13.9193 H         1 LIF301      0.0000 
     48 H          -0.1828   35.5510   13.2577 H         1 LIF301      0.0000 
     49 H          -1.3347   34.1181   16.5668 H         1 LIF301      0.0000 
     50 H          -3.6212   34.8768   16.7881 H         1 LIF301      0.0000 
     51 H          -4.9043   30.9059   17.1287 H         1 LIF301      0.0000 
     52 H          -2.6173   30.1542   16.9181 H         1 LIF301      0.0000 
     53 H           3.4631   32.5625   15.4058 H         1 LIF301      0.0000 
     54 H           4.5002   31.2697   14.7141 H         1 LIF301      0.0000 
     55 H           3.3191   27.6313   17.1597 H         1 LIF301      0.0000 
     56 H          -6.9111   31.7862   16.8876 H         1 LIF301      0.0000 
     57 H          -6.6241   32.1497   18.4277 H         1 LIF301      0.0000 
     58 H          -7.6533   33.0392   17.5698 H         1 LIF301      0.0000 
@<TRIPOS>BOND
     1    2    1 1    
     2    3    2 1    
     3    4    2 1    
     4    5    2 1    
     5    6    5 ar   
     6    7    5 ar   
     7   11    6 ar   
     8   40    6 1    
     9    8    7 ar   
    10   41    7 1    
    11    9    8 ar   
    12   42    8 1    
    13   10    9 1    
    14   11    9 ar   
    15   12   11 1    
    16   13   12 am   
    17   43   12 1    
    18   14   13 2    
    19   15   13 am   
    20   16   15 1    
    21   44   15 1    
    22   17   16 ar   
    23   21   16 ar   
    24   18   17 ar   
    25   45   17 1    
    26   19   18 ar   
    27   46   18 1    
    28   20   19 ar   
    29   22   19 1    
    30   21   20 ar   
    31   47   20 1    
    32   48   21 1    
    33   23   22 2    
    34   35   22 1    
    35   24   23 1    
    36   32   23 1    
    37   25   24 ar   
    38   29   24 ar   
    39   26   25 ar   
    40   49   25 1    
    41   27   26 ar   
    42   50   26 1    
    43   28   27 ar   
    44   30   27 1    
    45   29   28 ar   
    46   51   28 1    
    47   52   29 1    
    48   31   30 1    
    49   56   31 1    
    50   57   31 1    
    51   58   31 1    
    52   33   32 1    
    53   34   33 ar   
    54   35   33 ar   
    55   39   34 ar   
    56   36   35 ar   
    57   37   36 1    
    58   38   36 ar   
    59   53   37 1    
    60   54   37 1    
    61   39   38 ar   
    62   55   39 1    
@<TRIPOS>SUBSTRUCTURE
     1 LIF301      1 GROUP   
@<TRIPOS>SET

