#    Name: 3g1m_RF3_1_INTS_M
#    Modification time : Tue Mar 25 06:59:23 2014

@<TRIPOS>MOLECULE
3g1m_RF3_1_INTS_M
   63     0     6     0     0
SMALL
NO_CHARGES


@<TRIPOS>ATOM
      1 CA         29.9115   74.5750    9.9105 C.3       2 GLC5        0.0000 
      2 CA         31.1780   75.4190   11.0610 C.3       6 GLL5        0.0000 
      3 CA         28.6450   73.7310    8.7600 C.3       4 GLP5        0.0000 
      4 CA         29.5860   76.1720   12.2300 C.3       2 GLC5        0.0000 
      5 CA         27.9940   76.9250   13.3990 C.3       4 GLP5        0.0000 
      6 N          33.5460   74.8875    8.6885 N.am      1 SEC2        0.0000 
      7 N          32.2560   74.4870    9.1570 N.am      5 SEL2        0.0000 
      8 N          34.8360   75.2880    8.2200 N.am      3 SEP2        0.0000 
      9 CA         31.0560   74.1485   13.8760 C.3       2 GLC5        0.0000 
     10 CA         32.1010   73.2050   12.4590 C.3       6 GLL5        0.0000 
     11 CA         30.0110   75.0920   15.2930 C.3       4 GLP5        0.0000 
     12 CA         34.2375   73.3290   12.1120 C.3       2 GLC5        0.0000 
     13 CA         36.3740   73.4530   11.7650 C.3       4 GLP5        0.0000 
     14 CA         30.4125   70.9760   13.6465 C.3       2 GLC5        0.0000 
     15 CA         32.0900   71.7750   13.0050 C.3       6 GLL5        0.0000 
     16 CA         28.7350   70.1770   14.2880 C.3       4 GLP5        0.0000 
     17 CA         31.2655   72.4330    9.8360 C.3       2 GLC5        0.0000 
     18 CA         33.2680   72.2770   10.3590 C.3       6 GLL5        0.0000 
     19 CA         29.2630   72.5890    9.3130 C.3       4 GLP5        0.0000 
     20 CA         32.5385   69.3105    9.8000 C.3       2 GLC5        0.0000 
     21 CA         33.1960   70.9120   10.9610 C.3       6 GLL5        0.0000 
     22 CA         31.8810   67.7090    8.6390 C.3       4 GLP5        0.0000 
     23 CA         31.0985   71.5575   10.7960 C.3       2 GLC5        0.0000 
     24 CA         29.0010   72.2030   10.6310 C.3       4 GLP5        0.0000 
     25 CA         35.1135   69.9130   12.7590 C.3       2 GLC5        0.0000 
     26 CA         33.2640   70.9640   12.4610 C.3       6 GLL5        0.0000 
     27 CA         36.9630   68.8620   13.0570 C.3       4 GLP5        0.0000 
     28 CA         31.2395   67.2530   12.7825 C.3       2 GLC5        0.0000 
     29 CA         33.0160   66.0790   12.9430 C.3       6 GLL5        0.0000 
     30 CA         29.4630   68.4270   12.6220 C.3       4 GLP5        0.0000 
     31 CA         33.8100   65.7030   15.3890 C.3       2 GLC5        0.0000 
     32 CA         32.6990   65.0090   13.7000 C.3       6 GLL5        0.0000 
     33 CA         34.9210   66.3970   17.0780 C.3       4 GLP5        0.0000 
     34 CA         30.6915   63.3750   13.9995 C.3       2 GLC5        0.0000 
     35 CA         32.6320   63.8870   13.0050 C.3       6 GLL5        0.0000 
     36 CA         28.7510   62.8630   14.9940 C.3       4 GLP5        0.0000 
     37 CA         32.5385   66.6545   10.0170 C.3       2 GLC5        0.0000 
     38 CA         33.1960   65.6000   11.3950 C.3       6 GLL5        0.0000 
     39 CA         30.4128   79.3783   11.9430 C.3       2 GLC5        0.0000 
     40 CA         30.8700   77.9550   10.8700 C.3       6 GLL5        0.0000 
     41 CA         30.1050   80.3130   13.4540 C.3       4 GLP5        0.0000 
     42 CA         31.3855   80.2050    8.8445 C.3       2 GLC5        0.0000 
     43 CA         30.5710   78.9320    9.9940 C.3       6 GLL5        0.0000 
     44 CA         32.2930   81.6760    8.3190 C.3       4 GLP5        0.0000 
     45 CA         30.8720   77.4112    6.9272 C.3       2 GLC5        0.0000 
     46 CA         30.5950   76.8810    8.6390 C.3       6 GLL5        0.0000 
     47 CA         31.2540   77.1140    5.1620 C.3       4 GLP5        0.0000 
     48 CA         29.8282   75.4545    8.4183 C.3       2 GLC5        0.0000 
     49 CA         28.8920   74.0970    7.3420 C.3       4 GLP5        0.0000 
     50 CA         30.5483   72.3465   11.6815 C.3       2 GLC5        0.0000 
     51 CA         34.1900   71.5542    8.9795 C.3       2 GLC5        0.0000 
     52 CA         35.1480   71.5140    7.2990 C.3       4 GLP5        0.0000 
     53 CA         33.6704   72.2035   13.8448 C.3       2 GLC5        0.0000 
     54 CA         34.6610   72.6800   15.0930 C.3       4 GLP5        0.0000 
     55 CA         34.8110   72.3661   11.6627 C.3       2 GLC5        0.0000 
     56 CA         31.3875   64.8452   10.4437 C.3       2 GLC5        0.0000 
     57 CA         32.8640   63.9750   11.6940 C.3       6 GLL5        0.0000 
     58 CA         29.7450   64.9030    9.3430 C.3       4 GLP5        0.0000 
     59 CA         34.5755   63.8578   11.5166 C.3       2 GLC5        0.0000 
     60 CA         36.1790   62.9500   11.1610 C.3       4 GLP5        0.0000 
     61 CA         32.5173   77.6664    8.8504 C.3       2 GLC5        0.0000 
     62 CA         30.9340   76.7430   10.3500 C.3       6 GLL5        0.0000 
     63 CA         34.3760   77.6820    8.1590 C.3       4 GLP5        0.0000 
@<TRIPOS>BOND
@<TRIPOS>SUBSTRUCTURE
     1 SEC2        6 GROUP        1 X    SEC  0     ROOT SEC X 2
     2 GLC5        1 GROUP        1 X    GLC  0     **** GLC X 6
     3 SEP2        8 GROUP        1 Y    SEP  0     ROOT SEP Y 9
     4 GLP5        3 GROUP        1 Y    GLP  0     **** GLP Y 13
     5 SEL2        7 GROUP        1 Z    SEL  0     ROOT SEL Z 16
     6 GLL5        2 GROUP        1 Z    GLL  0     **** GLL Z 20
@<TRIPOS>SET

