#    Name: 3g1m_RF3_1_ligand
#    Modification time : Tue Mar 25 06:59:23 2014

@<TRIPOS>MOLECULE
3g1m_RF3_1_ligand
   41    44     1     0     0
SMALL
NO_CHARGES


@<TRIPOS>ATOM
      1 C40        30.8700   77.9550   10.8700 C.2       1 RF3217      0.0000 
      2 C38        30.5710   78.9320    9.9940 C.2       1 RF3217      0.0000 
      3 C36        30.3850   78.5360    8.7460 C.2       1 RF3217      0.0000 
      4 S35        30.5950   76.8810    8.6390 S.3       1 RF3217      0.0000 
      5 C01        30.9340   76.7430   10.3500 C.2       1 RF3217      0.0000 
      6 C02        31.1780   75.4190   11.0610 C.3       1 RF3217      0.0000 
      7 C05        32.0290   74.3710   10.3200 C.2       1 RF3217      0.0000 
      8 O07        32.2560   74.4870    9.1570 O.2       1 RF3217      0.0000 
      9 N06        32.3960   73.2970   11.0090 N.am      1 RF3217      0.0000 
     10 C19        32.1010   73.2050   12.4590 C.3       1 RF3217      0.0000 
     11 C16        32.0900   71.7750   13.0050 C.3       1 RF3217      0.0000 
     12 C08        33.2680   72.2770   10.3590 C.3       1 RF3217      0.0000 
     13 C11        33.1960   70.9120   10.9610 C.3       1 RF3217      0.0000 
     14 C14        33.2640   70.9640   12.4610 C.3       1 RF3217      0.0000 
     15 C22        33.2730   69.5310   13.0210 C.2       1 RF3217      0.0000 
     16 N26        33.1180   68.4270   12.3740 N.2       1 RF3217      0.0000 
     17 O23        33.3900   69.2760   14.2830 O.3       1 RF3217      0.0000 
     18 N24        33.3260   67.9360   14.4190 N.2       1 RF3217      0.0000 
     19 C25        33.1590   67.4290   13.2470 C.2       1 RF3217      0.0000 
     20 C27        33.0160   66.0790   12.9430 C.2       1 RF3217      0.0000 
     21 C28        32.6990   65.0090   13.7000 C.2       1 RF3217      0.0000 
     22 C30        32.6320   63.8870   13.0050 C.2       1 RF3217      0.0000 
     23 C32        32.8640   63.9750   11.6940 C.2       1 RF3217      0.0000 
     24 S34        33.1960   65.6000   11.3950 S.3       1 RF3217      0.0000 
     25 H          31.0315   78.1482   11.8518 H         1 RF3217      0.0000 
     26 H          30.4961   79.9033   10.2832 H         1 RF3217      0.0000 
     27 H          30.1712   78.9497    7.9383 H         1 RF3217      0.0000 
     28 H          30.1932   74.9558   11.3076 H         1 RF3217      0.0000 
     29 H          31.6588   75.6230   12.0471 H         1 RF3217      0.0000 
     30 H          31.1160   73.6634   12.6751 H         1 RF3217      0.0000 
     31 H          32.8466   73.7875   13.0350 H         1 RF3217      0.0000 
     32 H          31.1552   71.2908   12.7201 H         1 RF3217      0.0000 
     33 H          32.1486   71.8076   14.0935 H         1 RF3217      0.0000 
     34 H          34.3245   72.6301   10.3864 H         1 RF3217      0.0000 
     35 H          33.0074   72.2106    9.2777 H         1 RF3217      0.0000 
     36 H          34.0249   70.2982   10.5822 H         1 RF3217      0.0000 
     37 H          32.2590   70.4247   10.6579 H         1 RF3217      0.0000 
     38 H          34.1860   71.4479   12.7529 H         1 RF3217      0.0000 
     39 H          32.5343   65.0729   14.6848 H         1 RF3217      0.0000 
     40 H          32.4119   62.9854   13.4479 H         1 RF3217      0.0000 
     41 H          32.8886   63.4335   10.9754 H         1 RF3217      0.0000 
@<TRIPOS>BOND
     1    2    1 1    
     2    5    1 2    
     3   25    1 1    
     4    3    2 2    
     5   26    2 1    
     6    4    3 1    
     7   27    3 1    
     8    5    4 1    
     9    6    5 1    
    10    7    6 1    
    11   28    6 1    
    12   29    6 1    
    13    8    7 2    
    14    9    7 am   
    15   10    9 1    
    16   12    9 1    
    17   11   10 1    
    18   30   10 1    
    19   31   10 1    
    20   14   11 1    
    21   32   11 1    
    22   33   11 1    
    23   13   12 1    
    24   34   12 1    
    25   35   12 1    
    26   14   13 1    
    27   36   13 1    
    28   37   13 1    
    29   15   14 1    
    30   38   14 1    
    31   16   15 2    
    32   17   15 1    
    33   19   16 1    
    34   18   17 1    
    35   19   18 2    
    36   20   19 1    
    37   21   20 2    
    38   24   20 1    
    39   22   21 1    
    40   39   21 1    
    41   23   22 2    
    42   40   22 1    
    43   24   23 1    
    44   41   23 1    
@<TRIPOS>SUBSTRUCTURE
     1 RF3217      1 GROUP   
@<TRIPOS>SET

