#    Name: 3kdu_NKS_2_INTS_M
#    Modification time : Mon Mar 24 19:19:50 2014

@<TRIPOS>MOLECULE
3kdu_NKS_2_INTS_M
  117     0     6     0     0
SMALL
NO_CHARGES


@<TRIPOS>ATOM
      1 CA         -6.7270   47.2810    9.7600 C.3       2 GLC5        0.0000 
      2 CA         -5.9410   49.0110    9.5970 C.3       6 GLL5        0.0000 
      3 CA         -7.5130   45.5510    9.9230 C.3       4 GLP5        0.0000 
      4 CA         -7.8630   49.1485    9.7220 C.3       2 GLC5        0.0000 
      5 CA         -9.7850   49.2860    9.8470 C.3       4 GLP5        0.0000 
      6 CA         -2.8080   50.6745    5.6945 C.3       2 GLC5        0.0000 
      7 CA         -3.4320   51.7990    7.4460 C.3       6 GLL5        0.0000 
      8 CA         -2.1840   49.5500    3.9430 C.3       4 GLP5        0.0000 
      9 CA         -4.0550   47.2740    7.7845 C.3       2 GLC5        0.0000 
     10 CA         -4.0940   49.5070    7.9410 C.3       6 GLL5        0.0000 
     11 CA         -4.0160   45.0410    7.6280 C.3       4 GLP5        0.0000 
     12 CA         -0.1910   53.7365    3.3175 C.3       2 GLC5        0.0000 
     13 CA         -0.4850   53.7430    5.3240 C.3       6 GLL5        0.0000 
     14 CA          0.1030   53.7300    1.3110 C.3       4 GLP5        0.0000 
     15 CA          4.7775   51.1920    6.6110 C.3       2 GLC5        0.0000 
     16 CA          2.9820   51.2370    5.4860 C.3       6 GLL5        0.0000 
     17 CA          6.5730   51.1470    7.7360 C.3       4 GLP5        0.0000 
     18 CA          3.8715   50.4910    3.9585 C.3       2 GLC5        0.0000 
     19 CA          4.7610   49.7450    2.4310 C.3       4 GLP5        0.0000 
     20 CA          2.0895   50.5200    3.8190 C.3       2 GLC5        0.0000 
     21 CA          1.7550   50.7490    5.9160 C.3       6 GLL5        0.0000 
     22 CA          2.4240   50.2910    1.7220 C.3       4 GLP5        0.0000 
     23 CA          0.4245   49.6885    4.5090 C.3       2 GLC5        0.0000 
     24 CA         -0.9060   48.6280    3.1020 C.3       4 GLP5        0.0000 
     25 CA         -0.7755   50.5600    4.8965 C.3       2 GLC5        0.0000 
     26 CA          0.6330   51.5700    5.8500 C.3       6 GLL5        0.0000 
     27 CA          4.2030   50.2240    8.1300 C.3       2 GLC5        0.0000 
     28 CA          2.6020   48.9110    7.2620 C.3       6 GLL5        0.0000 
     29 CA          5.8040   51.5370    8.9980 C.3       4 GLP5        0.0000 
     30 CA          2.6990   47.8230    5.5325 C.3       2 GLC5        0.0000 
     31 CA          2.7960   46.7350    3.8030 C.3       4 GLP5        0.0000 
     32 CA          2.8325   45.3955    9.7665 C.3       2 GLC5        0.0000 
     33 CA          1.9230   46.1240   11.3410 C.3       6 GLL5        0.0000 
     34 CA          3.7420   44.6670    8.1920 C.3       4 GLP5        0.0000 
     35 CA          4.0545   45.3540   10.5475 C.3       2 GLC5        0.0000 
     36 CA          3.1670   46.2100   11.9660 C.3       6 GLL5        0.0000 
     37 CA          4.9420   44.4980    9.1290 C.3       4 GLP5        0.0000 
     38 CA          4.0820   44.4075   11.5850 C.3       2 GLC5        0.0000 
     39 CA          3.3600   45.5800   13.1970 C.3       6 GLL5        0.0000 
     40 CA          4.8040   43.2350    9.9730 C.3       4 GLP5        0.0000 
     41 CA          2.0830   46.7125   14.7455 C.3       2 GLC5        0.0000 
     42 CA          2.3050   44.8770   13.7800 C.3       6 GLL5        0.0000 
     43 CA          1.8610   48.5480   15.7110 C.3       4 GLP5        0.0000 
     44 CA         -0.2755   43.9170   14.1235 C.3       2 GLC5        0.0000 
     45 CA          1.0660   44.7920   13.1500 C.3       6 GLL5        0.0000 
     46 CA         -1.6170   43.0420   15.0970 C.3       4 GLP5        0.0000 
     47 CA         -0.9760   46.4515   11.6165 C.3       2 GLC5        0.0000 
     48 CA          0.8720   45.4160   11.9200 C.3       6 GLL5        0.0000 
     49 CA         -2.8240   47.4870   11.3130 C.3       4 GLP5        0.0000 
     50 CA          1.3130   47.3040   12.9700 C.3       2 GLC5        0.0000 
     51 CA          1.7540   49.1920   14.0200 C.3       4 GLP5        0.0000 
     52 CA          2.4025   42.5490   13.9060 C.3       2 GLC5        0.0000 
     53 CA          2.5200   44.0890   15.3200 C.3       6 GLL5        0.0000 
     54 CA          2.2850   41.0090   12.4920 C.3       4 GLP5        0.0000 
     55 CA          0.4515   43.5655   15.2085 C.3       2 GLC5        0.0000 
     56 CA          2.8565   42.1705   15.5750 C.3       2 GLC5        0.0000 
     57 CA          3.1930   40.2520   15.8300 C.3       4 GLP5        0.0000 
     58 CA          1.6055   44.2340   16.9720 C.3       2 GLC5        0.0000 
     59 CA          0.6910   44.3790   18.6240 C.3       4 GLP5        0.0000 
     60 CA          3.6955   45.1220   16.2630 C.3       2 GLC5        0.0000 
     61 CA          4.8710   46.1550   17.2060 C.3       4 GLP5        0.0000 
     62 CA         -1.5585   45.6890    6.2645 C.3       2 GLC5        0.0000 
     63 CA         -0.2350   47.1510    7.0340 C.3       6 GLL5        0.0000 
     64 CA         -2.8820   44.2270    5.4950 C.3       4 GLP5        0.0000 
     65 CA         -1.7340   47.6690    5.7760 C.3       2 GLC5        0.0000 
     66 CA         -3.2330   48.1870    4.5180 C.3       4 GLP5        0.0000 
     67 CA          0.0420   53.3945    8.4750 C.3       2 GLC5        0.0000 
     68 CA         -0.0120   55.1080    7.4240 C.3       6 GLL5        0.0000 
     69 CA          0.0960   51.6810    9.5260 C.3       4 GLP5        0.0000 
     70 CA          0.9525   55.2640    9.3420 C.3       2 GLC5        0.0000 
     71 CA          1.9170   55.4200   11.2600 C.3       4 GLP5        0.0000 
     72 CA          1.8345   55.6490    7.2895 C.3       2 GLC5        0.0000 
     73 CA          3.6810   56.1900    7.1550 C.3       4 GLP5        0.0000 
     74 N           1.8795   57.1105    7.7560 N.am      1 SEC2        0.0000 
     75 N           0.6230   57.3890    7.2280 N.am      5 SEL2        0.0000 
     76 N           3.1360   56.8320    8.2840 N.am      3 SEP2        0.0000 
     77 N           0.7385   58.4960    6.6460 N.am      1 SEC2        0.0000 
     78 N           0.8540   59.6030    6.0640 N.am      3 SEP2        0.0000 
     79 N          -0.2310   58.2470    6.1935 N.am      1 SEC2        0.0000 
     80 N          -1.3160   56.8910    6.3230 N.am      5 SEL2        0.0000 
     81 N          -1.7875   58.0115    5.7375 N.am      1 SEC2        0.0000 
     82 N          -2.2590   59.1320    5.1520 N.am      3 SEP2        0.0000 
     83 N          -2.1235   56.5860    5.2375 N.am      1 SEC2        0.0000 
     84 N          -2.9310   56.2810    4.1520 N.am      3 SEP2        0.0000 
     85 CA         -4.0640   51.8992   10.5805 C.3       2 GLC5        0.0000 
     86 CA         -5.2170   51.3450    9.0310 C.3       6 GLL5        0.0000 
     87 CA         -3.3130   52.0050   12.4770 C.3       4 GLP5        0.0000 
     88 CA         -6.2825   51.9239    7.8054 C.3       2 GLC5        0.0000 
     89 CA         -4.4130   52.2420    8.3370 C.3       6 GLL5        0.0000 
     90 CA         -7.7890   52.3960    6.9760 C.3       4 GLP5        0.0000 
     91 CA         -4.5195   51.6797    5.9705 C.3       2 GLC5        0.0000 
     92 CA         -3.2880   50.4200    7.2540 C.3       6 GLL5        0.0000 
     93 CA         -5.6790   52.2500    4.5910 C.3       4 GLP5        0.0000 
     94 CA         -3.4620   49.0752    6.0577 C.3       2 GLC5        0.0000 
     95 CA         -3.8107   48.4939    9.9456 C.3       2 GLC5        0.0000 
     96 CA         -2.1365   50.1636    8.4832 C.3       2 GLC5        0.0000 
     97 CA         -0.5460   50.0190    9.3210 C.3       4 GLP5        0.0000 
     98 CA          3.1055   54.5720    6.0575 C.3       2 GLC5        0.0000 
     99 CA          1.9730   53.3690    4.9270 C.3       6 GLL5        0.0000 
    100 CA          3.3050   53.8445    3.4625 C.3       2 GLC5        0.0000 
    101 CA          4.0800   54.7350    1.9650 C.3       4 GLP5        0.0000 
    102 CA          2.4770   51.6225    3.3410 C.3       2 GLC5        0.0000 
    103 CA          3.0870   52.5390    4.9930 C.3       6 GLL5        0.0000 
    104 CA          0.6587   51.5835    7.6434 C.3       2 GLC5        0.0000 
    105 CA          0.8725   49.2210    8.5340 C.3       2 GLC5        0.0000 
    106 CA         -0.1338   48.5953    8.4550 C.3       2 GLC5        0.0000 
    107 CA          0.7920   47.1920    8.1440 C.3       6 GLL5        0.0000 
    108 CA          0.7863   46.4802    5.7750 C.3       2 GLC5        0.0000 
    109 CA          1.2940   45.7890    3.9610 C.3       4 GLP5        0.0000 
    110 CA          2.6418   46.2373    8.0687 C.3       2 GLC5        0.0000 
    111 CA          0.5062   45.0983    7.4615 C.3       2 GLC5        0.0000 
    112 CA          0.7340   43.0250    7.3340 C.3       4 GLP5        0.0000 
    113 CA          3.8518   45.6917   15.3472 C.3       2 GLC5        0.0000 
    114 CA          2.3533   47.5328   13.2226 C.3       2 GLC5        0.0000 
    115 CA          1.9852   42.9218   12.9785 C.3       2 GLC5        0.0000 
    116 CA         -0.1360   44.1185   11.2040 C.3       2 GLC5        0.0000 
    117 CA         -1.2410   43.1330    9.8730 C.3       4 GLP5        0.0000 
@<TRIPOS>BOND
@<TRIPOS>SUBSTRUCTURE
     1 SEC2       74 GROUP        1 X    SEC  0     ROOT SEC X 2
     2 GLC5        1 GROUP        1 X    GLC  0     **** GLC X 6
     3 SEP2       76 GROUP        1 Y    SEP  0     ROOT SEP Y 9
     4 GLP5        3 GROUP        1 Y    GLP  0     **** GLP Y 13
     5 SEL2       75 GROUP        1 Z    SEL  0     ROOT SEL Z 16
     6 GLL5        2 GROUP        1 Z    GLL  0     **** GLL Z 20
@<TRIPOS>SET

