#    Name: 3kdu_NKS_2_ligand
#    Modification time : Mon Mar 24 19:19:50 2014

@<TRIPOS>MOLECULE
3kdu_NKS_2_ligand
   61    64     1     0     0
SMALL
NO_CHARGES


@<TRIPOS>ATOM
      1 C1         -5.9410   49.0110    9.5970 C.3       1 NKS501      0.0000 
      2 C2         -5.0610   49.9780    8.8340 C.ar      1 NKS501      0.0000 
      3 C3         -5.2170   51.3450    9.0310 C.ar      1 NKS501      0.0000 
      4 C4         -4.4130   52.2420    8.3370 C.ar      1 NKS501      0.0000 
      5 C5         -3.4320   51.7990    7.4460 C.ar      1 NKS501      0.0000 
      6 C6         -3.2880   50.4200    7.2540 C.ar      1 NKS501      0.0000 
      7 C7         -4.0940   49.5070    7.9410 C.ar      1 NKS501      0.0000 
      8 O8         -2.6610   52.6690    6.7670 O.3       1 NKS501      0.0000 
      9 C9         -1.8770   53.5740    7.3450 C.2       1 NKS501      0.0000 
     10 O10        -2.0940   53.8960    8.5060 O.2       1 NKS501      0.0000 
     11 N11        -0.8410   54.1320    6.6970 N.am      1 NKS501      0.0000 
     12 C12        -0.4850   53.7430    5.3240 C.3       1 NKS501      0.0000 
     13 C13         0.7430   52.8760    5.3610 C.ar      1 NKS501      0.0000 
     14 C14         1.9730   53.3690    4.9270 C.ar      1 NKS501      0.0000 
     15 C15         3.0870   52.5390    4.9930 C.ar      1 NKS501      0.0000 
     16 C16         2.9820   51.2370    5.4860 C.ar      1 NKS501      0.0000 
     17 C17         1.7550   50.7490    5.9160 C.ar      1 NKS501      0.0000 
     18 C18         0.6330   51.5700    5.8500 C.ar      1 NKS501      0.0000 
     19 O19         1.6180   49.5130    6.3860 O.3       1 NKS501      0.0000 
     20 C20         2.6020   48.9110    7.2620 C.3       1 NKS501      0.0000 
     21 C21         1.9800   47.9350    8.2320 C.2       1 NKS501      0.0000 
     22 C22         0.7920   47.1920    8.1440 C.2       1 NKS501      0.0000 
     23 O23         0.6930   46.5070    9.2350 O.3       1 NKS501      0.0000 
     24 C24         1.7010   46.7580   10.0180 C.2       1 NKS501      0.0000 
     25 N25         2.5310   47.6320    9.4250 N.2       1 NKS501      0.0000 
     26 C26         1.9230   46.1240   11.3410 C.ar      1 NKS501      0.0000 
     27 C27         3.1670   46.2100   11.9660 C.ar      1 NKS501      0.0000 
     28 C28         3.3600   45.5800   13.1970 C.ar      1 NKS501      0.0000 
     29 C29         2.3050   44.8770   13.7800 C.ar      1 NKS501      0.0000 
     30 C30         1.0660   44.7920   13.1500 C.ar      1 NKS501      0.0000 
     31 C31         0.8720   45.4160   11.9200 C.ar      1 NKS501      0.0000 
     32 CL32        2.5200   44.0890   15.3200 Cl        1 NKS501      0.0000 
     33 C33        -0.2350   47.1510    7.0340 C.3       1 NKS501      0.0000 
     34 C34        -0.0120   55.1080    7.4240 C.3       1 NKS501      0.0000 
     35 C35        -0.2210   56.5350    6.9810 C.2       1 NKS501      0.0000 
     36 O36         0.6230   57.3890    7.2280 O.co2     1 NKS501      0.0000 
     37 O37        -1.3160   56.8910    6.3230 O.co2     1 NKS501      0.0000 
     38 H          -5.9261   51.6925    9.6891 H         1 NKS501      0.0000 
     39 H          -4.5414   53.2604    8.4812 H         1 NKS501      0.0000 
     40 H          -2.5740   50.0715    6.5934 H         1 NKS501      0.0000 
     41 H          -3.9769   48.5025    7.7913 H         1 NKS501      0.0000 
     42 H          -0.2797   54.6269    4.7190 H         1 NKS501      0.0000 
     43 H          -1.3012   53.1861    4.8623 H         1 NKS501      0.0000 
     44 H           2.0524   54.3194    4.5686 H         1 NKS501      0.0000 
     45 H           4.0056   52.8884    4.6735 H         1 NKS501      0.0000 
     46 H           3.8188   50.6393    5.5296 H         1 NKS501      0.0000 
     47 H          -0.2819   51.2180    6.1612 H         1 NKS501      0.0000 
     48 H           3.1337   49.6861    7.8439 H         1 NKS501      0.0000 
     49 H           3.3708   48.3745    6.6762 H         1 NKS501      0.0000 
     50 H           3.9306   46.7292   11.5275 H         1 NKS501      0.0000 
     51 H           4.2665   45.6335   13.6668 H         1 NKS501      0.0000 
     52 H           0.2991   44.2719   13.5900 H         1 NKS501      0.0000 
     53 H          -0.0325   45.3552   11.4466 H         1 NKS501      0.0000 
     54 H           1.0622   54.8559    7.3032 H         1 NKS501      0.0000 
     55 H          -0.2194   55.0436    8.5125 H         1 NKS501      0.0000 
     56 H          -5.7303   48.0598    9.3714 H         1 NKS501      0.0000 
     57 H          -5.8302   49.1091   10.5860 H         1 NKS501      0.0000 
     58 H          -6.9102   49.1523    9.3952 H         1 NKS501      0.0000 
     59 H           0.1643   46.8452    6.1697 H         1 NKS501      0.0000 
     60 H          -0.9869   46.5269    7.2466 H         1 NKS501      0.0000 
     61 H          -0.6388   48.0507    6.8682 H         1 NKS501      0.0000 
@<TRIPOS>BOND
     1    2    1 1    
     2   56    1 1    
     3   57    1 1    
     4   58    1 1    
     5    3    2 ar   
     6    7    2 ar   
     7    4    3 ar   
     8   38    3 1    
     9    5    4 ar   
    10   39    4 1    
    11    6    5 ar   
    12    8    5 1    
    13    7    6 ar   
    14   40    6 1    
    15   41    7 1    
    16    9    8 1    
    17   10    9 2    
    18   11    9 am   
    19   12   11 1    
    20   34   11 1    
    21   13   12 1    
    22   42   12 1    
    23   43   12 1    
    24   14   13 ar   
    25   18   13 ar   
    26   15   14 ar   
    27   44   14 1    
    28   16   15 ar   
    29   45   15 1    
    30   17   16 ar   
    31   46   16 1    
    32   18   17 ar   
    33   19   17 1    
    34   47   18 1    
    35   20   19 1    
    36   21   20 1    
    37   48   20 1    
    38   49   20 1    
    39   22   21 2    
    40   25   21 1    
    41   23   22 1    
    42   33   22 1    
    43   24   23 1    
    44   25   24 2    
    45   26   24 1    
    46   27   26 ar   
    47   31   26 ar   
    48   28   27 ar   
    49   50   27 1    
    50   29   28 ar   
    51   51   28 1    
    52   30   29 ar   
    53   32   29 1    
    54   31   30 ar   
    55   52   30 1    
    56   53   31 1    
    57   59   33 1    
    58   60   33 1    
    59   61   33 1    
    60   35   34 1    
    61   54   34 1    
    62   55   34 1    
    63   36   35 ar   
    64   37   35 ar   
@<TRIPOS>SUBSTRUCTURE
     1 NKS501      1 GROUP   
@<TRIPOS>SET

