#    Name: 4e7r_0NW_1_INTS_M
#    Modification time : Tue Mar 25 10:41:58 2014

@<TRIPOS>MOLECULE
4e7r_0NW_1_INTS_M
   81     0     9     0     0
SMALL
NO_CHARGES


@<TRIPOS>ATOM
      1 CA         -2.2680  -13.7400  -22.2170 C.3       3 GLC5        0.0000 
      2 CA         -2.5780  -15.8180  -22.2430 C.3       9 GLL5        0.0000 
      3 CA         -1.9580  -11.6620  -22.1910 C.3       6 GLP5        0.0000 
      4 CA         -4.8155  -20.3780  -22.2910 C.3       3 GLC5        0.0000 
      5 CA         -4.3990  -20.8120  -20.4900 C.3       9 GLL5        0.0000 
      6 CA         -5.2320  -19.9440  -24.0920 C.3       6 GLP5        0.0000 
      7 CA         -2.7665  -23.5695  -16.8605 C.3       3 GLC5        0.0000 
      8 CA         -3.2860  -22.0810  -18.1250 C.3       9 GLL5        0.0000 
      9 CA         -2.2470  -25.0580  -15.5960 C.3       6 GLP5        0.0000 
     10 CA         -1.3355  -13.6005  -23.0490 C.3       3 GLC5        0.0000 
     11 CA         -0.7130  -15.5390  -23.9070 C.3       9 GLL5        0.0000 
     12 CA         -1.5465  -14.9245  -25.8235 C.3       3 GLC5        0.0000 
     13 CA         -2.3800  -14.3100  -27.7400 C.3       6 GLP5        0.0000 
     14 O          -0.6275  -13.6855  -25.2205 O.2       1 ALC1        0.0000 
     15 O          -1.4590  -14.7640  -24.6850 O.2       7 ALL1        0.0000 
     16 O           0.2040  -12.6070  -25.7560 O.2       4 ALP1        0.0000 
     17 O           0.3570  -14.1600  -24.9705 O.2       1 ALC1        0.0000 
     18 O           0.5100  -15.7130  -24.1850 O.2       7 ALL1        0.0000 
     19 O           1.2110  -14.8450  -25.0615 O.2       1 ALC1        0.0000 
     20 O           1.9120  -13.9770  -25.9380 O.2       4 ALP1        0.0000 
     21 O           1.4370  -16.8100  -24.1370 O.2       1 ALC1        0.0000 
     22 O           2.3640  -17.9070  -24.0890 O.2       4 ALP1        0.0000 
     23 CA          1.3515  -16.7075  -21.6360 C.3       3 GLC5        0.0000 
     24 CA         -0.5900  -17.1330  -21.9850 C.3       9 GLL5        0.0000 
     25 CA          3.2930  -16.2820  -21.2870 C.3       6 GLP5        0.0000 
     26 O          -0.1095  -20.4790  -23.1340 O.2       1 ALC1        0.0000 
     27 O           0.1700  -20.5420  -21.7690 O.2       7 ALL1        0.0000 
     28 O          -0.3890  -20.4160  -24.4990 O.2       4 ALP1        0.0000 
     29 CA         -8.4130  -24.7345  -26.6515 C.3       3 GLC5        0.0000 
     30 CA         -6.9630  -23.9100  -26.0720 C.3       9 GLL5        0.0000 
     31 CA         -9.8630  -25.5590  -27.2310 C.3       6 GLP5        0.0000 
     32 CA         -8.0775  -23.4565  -24.5935 C.3       3 GLC5        0.0000 
     33 CA         -9.1920  -23.0030  -23.1150 C.3       6 GLP5        0.0000 
     34 CA         -6.8870  -24.2240  -28.0580 C.3       3 GLC5        0.0000 
     35 CA         -6.8110  -24.5380  -30.0440 C.3       6 GLP5        0.0000 
     36 CA         -6.7035  -22.2150  -26.8295 C.3       3 GLC5        0.0000 
     37 CA         -6.4440  -20.5200  -27.5870 C.3       6 GLP5        0.0000 
     38 CA         -4.3675  -24.4430  -27.5450 C.3       3 GLC5        0.0000 
     39 CA         -4.2910  -23.8410  -25.5540 C.3       9 GLL5        0.0000 
     40 CA         -4.4440  -25.0450  -29.5360 C.3       6 GLP5        0.0000 
     41 CA         -2.8475  -22.2240  -26.3395 C.3       3 GLC5        0.0000 
     42 CA         -1.5950  -23.6280  -25.6120 C.3       9 GLL5        0.0000 
     43 CA         -4.1000  -20.8200  -27.0670 C.3       6 GLP5        0.0000 
     44 CA         -0.6605  -22.9745  -26.9565 C.3       3 GLC5        0.0000 
     45 CA          0.2740  -22.3210  -28.3010 C.3       6 GLP5        0.0000 
     46 N           2.4205  -21.1615  -23.8705 N.am      2 SEC2        0.0000 
     47 N           1.8000  -21.9270  -22.9300 N.am      8 SEL2        0.0000 
     48 N           3.0410  -20.3960  -24.8110 N.am      5 SEP2        0.0000 
     49 N          -2.4640  -19.5000  -23.4540 N.am      2 SEC2        0.0000 
     50 N          -2.4110  -20.2360  -22.2080 N.am      8 SEL2        0.0000 
     51 N          -2.5170  -18.7640  -24.7000 N.am      5 SEP2        0.0000 
     52 CA         -3.5705  -17.9380  -22.1120 C.3       3 GLC5        0.0000 
     53 CA         -2.3980  -17.3640  -20.4000 C.3       9 GLL5        0.0000 
     54 CA         -4.7430  -18.5120  -23.8240 C.3       6 GLP5        0.0000 
     55 CA         -3.9832  -14.7180  -21.4750 C.3       3 GLC5        0.0000 
     56 CA         -3.1190  -16.4040  -21.0990 C.3       9 GLL5        0.0000 
     57 CA         -5.1180  -13.3250  -21.2790 C.3       6 GLP5        0.0000 
     58 CA         -3.4116  -17.3290  -23.0020 C.3       3 GLC5        0.0000 
     59 CA         -1.3120  -16.1810  -22.6890 C.3       9 GLL5        0.0000 
     60 CA         -6.2630  -20.8615  -18.9630 C.3       3 GLC5        0.0000 
     61 CA         -7.8350  -20.2890  -17.7620 C.3       6 GLP5        0.0000 
     62 CA         -6.4380  -21.7030  -21.3875 C.3       3 GLC5        0.0000 
     63 CA         -4.9830  -22.0560  -19.8380 C.3       9 GLL5        0.0000 
     64 CA         -8.1850  -21.9720  -22.6110 C.3       6 GLP5        0.0000 
     65 CA         -0.2145  -14.9876  -21.5902 C.3       3 GLC5        0.0000 
     66 CA          0.9000  -14.2060  -19.9940 C.3       6 GLP5        0.0000 
     67 CA          0.0190  -15.8195  -20.7063 C.3       3 GLC5        0.0000 
     68 CA         -1.1843  -17.5011  -24.0989 C.3       3 GLC5        0.0000 
     69 CA         -1.4090  -18.5510  -25.6120 C.3       6 GLP5        0.0000 
     70 CA         -6.7430  -23.1107  -23.3716 C.3       3 GLC5        0.0000 
     71 CA         -5.5320  -24.0640  -25.0030 C.3       9 GLL5        0.0000 
     72 CA         -5.0854  -21.9886  -24.5170 C.3       3 GLC5        0.0000 
     73 CA         -5.6410  -24.3870  -23.6570 C.3       9 GLL5        0.0000 
     74 CA         -6.2677  -24.9127  -16.9175 C.3       3 GLC5        0.0000 
     75 CA         -5.4530  -23.2270  -17.7000 C.3       9 GLL5        0.0000 
     76 CA         -7.2090  -26.5580  -16.8880 C.3       6 GLP5        0.0000 
     77 CA         -3.7868  -24.1627  -16.2715 C.3       3 GLC5        0.0000 
     78 CA         -6.4975  -21.6265  -17.4343 C.3       3 GLC5        0.0000 
     79 CA         -5.2000  -23.3080  -16.1940 C.3       9 GLL5        0.0000 
     80 CA         -0.7458  -17.1760  -18.7696 C.3       3 GLC5        0.0000 
     81 CA          0.0720  -16.5400  -17.0970 C.3       6 GLP5        0.0000 
@<TRIPOS>BOND
@<TRIPOS>SUBSTRUCTURE
     1 ALC1       14 GROUP        1 X    ALC  0     ROOT ALC X 1
     2 SEC2       46 GROUP        1 X    SEC  0     **** SEC X 2
     3 GLC5        1 GROUP        1 X    GLC  0     **** GLC X 6
     4 ALP1       16 GROUP        1 Y    ALP  0     ROOT ALP Y 8
     5 SEP2       48 GROUP        1 Y    SEP  0     **** SEP Y 9
     6 GLP5        3 GROUP        1 Y    GLP  0     **** GLP Y 13
     7 ALL1       15 GROUP        1 Z    ALL  0     ROOT ALL Z 15
     8 SEL2       47 GROUP        1 Z    SEL  0     **** SEL Z 16
     9 GLL5        2 GROUP        1 Z    GLL  0     **** GLL Z 20
@<TRIPOS>SET

