#    Name: 4e7r_0NW_1_ligand
#    Modification time : Tue Mar 25 10:41:59 2014

@<TRIPOS>MOLECULE
4e7r_0NW_1_ligand
   75    78     1     0     0
SMALL
NO_CHARGES


@<TRIPOS>ATOM
      1 C1         -3.1190  -16.4040  -21.0990 C.ar      1 0NW1302     0.0000 
      2 C2         -2.5780  -15.8180  -22.2430 C.ar      1 0NW1302     0.0000 
      3 C3         -1.3120  -16.1810  -22.6890 C.ar      1 0NW1302     0.0000 
      4 C7         -0.3240  -18.7870  -20.1170 C.3       1 0NW1302     0.0000 
      5 C8         -0.6560  -20.1960  -20.6290 C.3       1 0NW1302     0.0000 
      6 C9         -2.0970  -20.3680  -21.0350 C.2       1 0NW1302     0.0000 
      7 C12        -4.3990  -20.8120  -20.4900 C.3       1 0NW1302     0.0000 
      8 C13        -4.9830  -22.0560  -19.8380 C.3       1 0NW1302     0.0000 
      9 C14        -4.7870  -22.0130  -18.3380 C.3       1 0NW1302     0.0000 
     10 C15        -3.2860  -22.0810  -18.1250 C.3       1 0NW1302     0.0000 
     11 C16        -2.6340  -20.8270  -18.6980 C.3       1 0NW1302     0.0000 
     12 C30        -0.6480  -25.3550  -20.8700 C.ar      1 0NW1302     0.0000 
     13 C31        -1.7840  -25.3930  -21.6800 C.ar      1 0NW1302     0.0000 
     14 C32        -2.0350  -24.3330  -22.5400 C.ar      1 0NW1302     0.0000 
     15 C33        -1.1640  -23.2390  -22.5350 C.ar      1 0NW1302     0.0000 
     16 C34        -3.2410  -24.2710  -23.4250 C.ar      1 0NW1302     0.0000 
     17 C35        -3.1500  -23.9380  -24.7730 C.ar      1 0NW1302     0.0000 
     18 C44        -0.7130  -15.5390  -23.9070 C.2       1 0NW1302     0.0000 
     19 N46        -1.4590  -14.7640  -24.6850 N.pl3     1 0NW1302     0.0000 
     20 N45         0.5100  -15.7130  -24.1850 N.pl3     1 0NW1302     0.0000 
     21 C4         -0.5900  -17.1330  -21.9850 C.ar      1 0NW1302     0.0000 
     22 C5         -1.1340  -17.7330  -20.8520 C.ar      1 0NW1302     0.0000 
     23 N24         0.1700  -20.5420  -21.7690 N.pl3     1 0NW1302     0.0000 
     24 S25         0.9760  -21.9330  -21.7550 S.o2      1 0NW1302     0.0000 
     25 C28        -0.0240  -23.1950  -21.7340 C.ar      1 0NW1302     0.0000 
     26 C39        -4.4990  -24.4830  -22.8660 C.ar      1 0NW1302     0.0000 
     27 C38        -5.6410  -24.3870  -23.6570 C.ar      1 0NW1302     0.0000 
     28 C37        -5.5320  -24.0640  -25.0030 C.ar      1 0NW1302     0.0000 
     29 CL2        -6.9630  -23.9100  -26.0720 Cl        1 0NW1302     0.0000 
     30 C36        -4.2910  -23.8410  -25.5540 C.ar      1 0NW1302     0.0000 
     31 CL1        -1.5950  -23.6280  -25.6120 Cl        1 0NW1302     0.0000 
     32 C29         0.2270  -24.2720  -20.8880 C.ar      1 0NW1302     0.0000 
     33 O27         1.8000  -21.9270  -22.9300 O.2       1 0NW1302     0.0000 
     34 O26         1.7710  -21.9530  -20.5630 O.2       1 0NW1302     0.0000 
     35 N11        -2.9960  -20.6760  -20.1060 N.am      1 0NW1302     0.0000 
     36 C17        -5.4530  -23.2270  -17.7000 C.3       1 0NW1302     0.0000 
     37 C18        -5.2000  -23.3080  -16.1940 C.3       1 0NW1302     0.0000 
     38 N19        -6.0070  -22.3290  -15.4870 N.4       1 0NW1302     0.0000 
     39 O10        -2.4110  -20.2360  -22.2080 O.2       1 0NW1302     0.0000 
     40 C6         -2.3980  -17.3640  -20.4000 C.ar      1 0NW1302     0.0000 
     41 H          -4.0538  -16.1233  -20.7741 H         1 0NW1302     0.0000 
     42 H          -3.1216  -15.1113  -22.7601 H         1 0NW1302     0.0000 
     43 H           0.7395  -18.5989  -20.2648 H         1 0NW1302     0.0000 
     44 H          -0.5434  -18.7379  -19.0503 H         1 0NW1302     0.0000 
     45 H          -0.4503  -20.9043  -19.8157 H         1 0NW1302     0.0000 
     46 H          -4.9778  -19.9463  -20.1639 H         1 0NW1302     0.0000 
     47 H          -4.4990  -20.9092  -21.5723 H         1 0NW1302     0.0000 
     48 H          -4.4901  -22.9392  -20.2446 H         1 0NW1302     0.0000 
     49 H          -6.0477  -22.1137  -20.0648 H         1 0NW1302     0.0000 
     50 H          -5.1682  -21.1223  -17.9467 H         1 0NW1302     0.0000 
     51 H          -2.8864  -22.9545  -18.6283 H         1 0NW1302     0.0000 
     52 H          -3.0716  -22.1433  -17.0638 H         1 0NW1302     0.0000 
     53 H          -1.5511  -20.9183  -18.5814 H         1 0NW1302     0.0000 
     54 H          -2.9710  -19.9666  -18.1143 H         1 0NW1302     0.0000 
     55 H          -0.4515  -26.1559  -20.2380 H         1 0NW1302     0.0000 
     56 H          -2.4196  -26.1915  -21.6378 H         1 0NW1302     0.0000 
     57 H          -1.3769  -22.4266  -23.1543 H         1 0NW1302     0.0000 
     58 H          -2.4186  -14.6682  -24.4203 H         1 0NW1302     0.0000 
     59 H          -0.9940  -14.3461  -25.4655 H         1 0NW1302     0.0000 
     60 H           0.9656  -14.9583  -24.6572 H         1 0NW1302     0.0000 
     61 H           0.9044  -16.5886  -23.9061 H         1 0NW1302     0.0000 
     62 H           0.3548  -17.3998  -22.2999 H         1 0NW1302     0.0000 
     63 H           0.2810  -19.9868  -22.5656 H         1 0NW1302     0.0000 
     64 H          -4.5845  -24.7110  -21.8666 H         1 0NW1302     0.0000 
     65 H          -6.5673  -24.5562  -23.2412 H         1 0NW1302     0.0000 
     66 H          -4.2044  -23.5995  -26.5556 H         1 0NW1302     0.0000 
     67 H           1.0535  -24.2676  -20.2802 H         1 0NW1302     0.0000 
     68 H          -5.0722  -24.1381  -18.1754 H         1 0NW1302     0.0000 
     69 H          -6.5333  -23.1805  -17.8784 H         1 0NW1302     0.0000 
     70 H          -4.1308  -23.1385  -16.0198 H         1 0NW1302     0.0000 
     71 H          -5.4362  -24.3267  -15.8644 H         1 0NW1302     0.0000 
     72 H          -2.7916  -17.7971  -19.5596 H         1 0NW1302     0.0000 
     73 H          -5.8569  -22.3677  -14.4991 H         1 0NW1302     0.0000 
     74 H          -5.7986  -21.3955  -15.7788 H         1 0NW1302     0.0000 
     75 H          -6.9846  -22.4728  -15.6408 H         1 0NW1302     0.0000 
@<TRIPOS>BOND
     1    2    1 ar   
     2   40    1 ar   
     3   41    1 1    
     4    3    2 ar   
     5   42    2 1    
     6   18    3 1    
     7   21    3 ar   
     8    5    4 1    
     9   22    4 1    
    10   43    4 1    
    11   44    4 1    
    12    6    5 1    
    13   23    5 1    
    14   45    5 1    
    15   35    6 am   
    16   39    6 2    
    17    8    7 1    
    18   35    7 1    
    19   46    7 1    
    20   47    7 1    
    21    9    8 1    
    22   48    8 1    
    23   49    8 1    
    24   10    9 1    
    25   36    9 1    
    26   50    9 1    
    27   11   10 1    
    28   51   10 1    
    29   52   10 1    
    30   35   11 1    
    31   53   11 1    
    32   54   11 1    
    33   13   12 ar   
    34   32   12 ar   
    35   55   12 1    
    36   14   13 ar   
    37   56   13 1    
    38   15   14 ar   
    39   16   14 1    
    40   25   15 ar   
    41   57   15 1    
    42   17   16 ar   
    43   26   16 ar   
    44   30   17 ar   
    45   31   17 1    
    46   19   18 2    
    47   20   18 1    
    48   58   19 1    
    49   59   19 1    
    50   60   20 1    
    51   61   20 1    
    52   22   21 ar   
    53   62   21 1    
    54   40   22 ar   
    55   24   23 1    
    56   63   23 1    
    57   25   24 1    
    58   33   24 2    
    59   34   24 2    
    60   32   25 ar   
    61   27   26 ar   
    62   64   26 1    
    63   28   27 ar   
    64   65   27 1    
    65   29   28 1    
    66   30   28 ar   
    67   66   30 1    
    68   67   32 1    
    69   37   36 1    
    70   68   36 1    
    71   69   36 1    
    72   38   37 1    
    73   70   37 1    
    74   71   37 1    
    75   73   38 1    
    76   74   38 1    
    77   75   38 1    
    78   72   40 1    
@<TRIPOS>SUBSTRUCTURE
     1 0NW1302     1 GROUP   
@<TRIPOS>SET

