#    Name: 4gki_0JN_5_INTS_M
#    Modification time : Mon Mar 24 22:22:14 2014

@<TRIPOS>MOLECULE
4gki_0JN_5_INTS_M
   51     0     9     0     0
SMALL
NO_CHARGES


@<TRIPOS>ATOM
      1 N          55.7805  -18.6995   66.5910 N.am      2 SEC2        0.0000 
      2 N          57.2120  -18.7550   66.8870 N.am      8 SEL2        0.0000 
      3 N          54.3490  -18.6440   66.2950 N.am      5 SEP2        0.0000 
      4 CA         56.5750  -20.5615   68.9975 C.3       3 GLC5        0.0000 
      5 CA         57.5050  -20.0060   67.4240 C.3       9 GLL5        0.0000 
      6 CA         55.6450  -21.1170   70.5710 C.3       6 GLP5        0.0000 
      7 CA         56.1805  -20.2790   66.1445 C.3       3 GLC5        0.0000 
      8 CA         54.8560  -20.5520   64.8650 C.3       6 GLP5        0.0000 
      9 CA         57.6515  -18.9200   69.0300 C.3       3 GLC5        0.0000 
     10 CA         57.7980  -17.8340   70.6360 C.3       6 GLP5        0.0000 
     11 CA         58.2020  -15.8775   67.5300 C.3       3 GLC5        0.0000 
     12 CA         58.1900  -17.8780   66.6370 C.3       9 GLL5        0.0000 
     13 CA         58.2140  -13.8770   68.4230 C.3       6 GLP5        0.0000 
     14 CA         57.9940  -17.8560   68.6365 C.3       3 GLC5        0.0000 
     15 CA         63.0760  -22.4115   66.0170 C.3       3 GLC5        0.0000 
     16 CA         61.5270  -21.9060   67.3960 C.3       9 GLL5        0.0000 
     17 CA         64.6250  -22.9170   64.6380 C.3       6 GLP5        0.0000 
     18 CA         60.5890  -22.7230   66.0880 C.3       3 GLC5        0.0000 
     19 CA         59.6510  -23.5400   64.7800 C.3       6 GLP5        0.0000 
     20 CA         62.7510  -23.0315   68.7725 C.3       3 GLC5        0.0000 
     21 CA         63.9750  -24.1570   70.1490 C.3       6 GLP5        0.0000 
     22 CA         64.8540  -21.2340   67.4870 C.3       3 GLC5        0.0000 
     23 CA         63.3900  -20.4050   68.0290 C.3       9 GLL5        0.0000 
     24 CA         66.3180  -22.0630   66.9450 C.3       6 GLP5        0.0000 
     25 CA         63.6825  -22.2810   69.0890 C.3       3 GLC5        0.0000 
     26 CA         65.0340  -18.9540   62.5965 C.3       3 GLC5        0.0000 
     27 CA         63.3370  -17.7420   63.1060 C.3       9 GLL5        0.0000 
     28 CA         66.7310  -20.1660   62.0870 C.3       6 GLP5        0.0000 
     29 CA         59.0490  -14.3140   66.5620 C.3       3 GLC5        0.0000 
     30 CA         59.8840  -14.7510   64.7010 C.3       9 GLL5        0.0000 
     31 CA         62.7725  -22.4850   69.9090 C.3       3 GLC5        0.0000 
     32 CA         61.5700  -20.8130   69.6690 C.3       9 GLL5        0.0000 
     33 CA         60.3000  -19.4475   70.6030 C.3       3 GLC5        0.0000 
     34 CA         59.0300  -18.0820   71.5370 C.3       6 GLP5        0.0000 
     35 CA         61.6555  -20.5625   71.8590 C.3       3 GLC5        0.0000 
     36 CA         61.7410  -20.3120   74.0490 C.3       6 GLP5        0.0000 
     37 O          56.3865  -16.3450   65.7600 O.2       1 ALC1        0.0000 
     38 O          57.8460  -16.6870   66.1140 O.2       7 ALL1        0.0000 
     39 O          54.9270  -16.0030   65.4060 O.2       4 ALP1        0.0000 
     40 CA         59.6185  -14.9955   67.3580 C.3       3 GLC5        0.0000 
     41 CA         61.0230  -16.1140   66.2930 C.3       9 GLL5        0.0000 
     42 CA         60.8025  -16.3895   68.1675 C.3       3 GLC5        0.0000 
     43 CA         60.5820  -16.6650   70.0420 C.3       6 GLP5        0.0000 
     44 CA         60.1148  -17.7172   68.6047 C.3       3 GLC5        0.0000 
     45 CA         59.4910  -18.1640   66.9100 C.3       9 GLL5        0.0000 
     46 CA         61.5850  -18.0450   60.6245 C.3       3 GLC5        0.0000 
     47 CA         63.1170  -17.2980   61.8080 C.3       9 GLL5        0.0000 
     48 CA         60.5380  -19.2740   59.5640 C.3       6 GLP5        0.0000 
     49 CA         61.1696  -13.9438   66.5556 C.3       3 GLC5        0.0000 
     50 CA         60.8350  -15.7390   64.9620 C.3       9 GLL5        0.0000 
     51 CA         61.6480  -12.2080   67.5490 C.3       6 GLP5        0.0000 
@<TRIPOS>BOND
@<TRIPOS>SUBSTRUCTURE
     1 ALC1       37 GROUP        1 X    ALC  0     ROOT ALC X 1
     2 SEC2        1 GROUP        1 X    SEC  0     **** SEC X 2
     3 GLC5        4 GROUP        1 X    GLC  0     **** GLC X 6
     4 ALP1       39 GROUP        1 Y    ALP  0     ROOT ALP Y 8
     5 SEP2        3 GROUP        1 Y    SEP  0     **** SEP Y 9
     6 GLP5        6 GROUP        1 Y    GLP  0     **** GLP Y 13
     7 ALL1       38 GROUP        1 Z    ALL  0     ROOT ALL Z 15
     8 SEL2        2 GROUP        1 Z    SEL  0     **** SEL Z 16
     9 GLL5        5 GROUP        1 Z    GLL  0     **** GLL Z 20
@<TRIPOS>SET

