#    Name: 4gki_0JN_5_ligand
#    Modification time : Mon Mar 24 22:22:14 2014

@<TRIPOS>MOLECULE
4gki_0JN_5_ligand
   46    49     1     0     0
SMALL
NO_CHARGES


@<TRIPOS>ATOM
      1 N1         57.2120  -18.7550   66.8870 N.ar      1 0JN302      0.0000 
      2 C2         57.5050  -20.0060   67.4240 C.ar      1 0JN302      0.0000 
      3 N3         58.8410  -20.2880   67.6920 N.ar      1 0JN302      0.0000 
      4 C4         59.8040  -19.3750   67.4250 C.ar      1 0JN302      0.0000 
      5 C5         59.4910  -18.1640   66.9100 C.ar      1 0JN302      0.0000 
      6 C6         58.1900  -17.8780   66.6370 C.ar      1 0JN302      0.0000 
      7 CAA        61.5270  -21.9060   67.3960 C.3       1 0JN302      0.0000 
      8 CAB        63.3900  -20.4050   68.0290 C.3       1 0JN302      0.0000 
      9 CAE        63.1170  -17.2980   61.8080 C.ar      1 0JN302      0.0000 
     10 CAF        63.3370  -17.7420   63.1060 C.ar      1 0JN302      0.0000 
     11 CAG        59.6790  -14.3110   63.3930 C.ar      1 0JN302      0.0000 
     12 CAH        59.8840  -14.7510   64.7010 C.ar      1 0JN302      0.0000 
     13 CAI        62.1470  -16.3340   61.5620 C.ar      1 0JN302      0.0000 
     14 CAJ        60.4310  -14.8440   62.3500 C.ar      1 0JN302      0.0000 
     15 CAR        60.8350  -15.7390   64.9620 C.ar      1 0JN302      0.0000 
     16 CAS        60.6870  -17.5460   66.7730 C.2       1 0JN302      0.0000 
     17 CAT        61.3970  -15.8100   62.6130 C.ar      1 0JN302      0.0000 
     18 NAX        61.1360  -19.4480   67.6080 N.pl3     1 0JN302      0.0000 
     19 CAY        61.8930  -20.6320   68.1720 C.3       1 0JN302      0.0000 
     20 CAC        61.5700  -20.8130   69.6690 C.3       1 0JN302      0.0000 
     21 NAP        61.6650  -18.3450   67.2300 N.2       1 0JN302      0.0000 
     22 NAD        57.8460  -16.6870   66.1140 N.pl3     1 0JN302      0.0000 
     23 CAM        61.0230  -16.1140   66.2930 C.3       1 0JN302      0.0000 
     24 CAU        61.6130  -16.2510   63.9180 C.ar      1 0JN302      0.0000 
     25 CAK        62.5880  -17.2190   64.1560 C.ar      1 0JN302      0.0000 
     26 H          56.7780  -20.6800   67.6109 H         1 0JN302      0.0000 
     27 H          63.6703  -17.6816   61.0317 H         1 0JN302      0.0000 
     28 H          64.0524  -18.4565   63.2919 H         1 0JN302      0.0000 
     29 H          58.9703  -13.5911   63.2005 H         1 0JN302      0.0000 
     30 H          59.3368  -14.3492   65.4702 H         1 0JN302      0.0000 
     31 H          61.9806  -16.0047   60.6010 H         1 0JN302      0.0000 
     32 H          60.2725  -14.5240   61.3864 H         1 0JN302      0.0000 
     33 H          58.5995  -16.0623   65.9090 H         1 0JN302      0.0000 
     34 H          56.8675  -16.5327   65.9769 H         1 0JN302      0.0000 
     35 H          60.4537  -15.4144   67.0038 H         1 0JN302      0.0000 
     36 H          62.1066  -15.9291   66.6254 H         1 0JN302      0.0000 
     37 H          62.7546  -17.5494   65.1187 H         1 0JN302      0.0000 
     38 H          61.7562  -21.8286   66.4257 H         1 0JN302      0.0000 
     39 H          62.0105  -22.7073   67.7483 H         1 0JN302      0.0000 
     40 H          60.5488  -22.1063   67.4511 H         1 0JN302      0.0000 
     41 H          63.9184  -21.1722   68.3927 H         1 0JN302      0.0000 
     42 H          63.6587  -20.2913   67.0725 H         1 0JN302      0.0000 
     43 H          63.6896  -19.5852   68.5170 H         1 0JN302      0.0000 
     44 H          62.0771  -21.5766   70.0687 H         1 0JN302      0.0000 
     45 H          61.8011  -19.9978   70.2000 H         1 0JN302      0.0000 
     46 H          60.5984  -20.9954   69.8199 H         1 0JN302      0.0000 
@<TRIPOS>BOND
     1    2    1 ar   
     2    6    1 ar   
     3    3    2 ar   
     4   26    2 1    
     5    4    3 ar   
     6    5    4 ar   
     7   18    4 1    
     8    6    5 ar   
     9   16    5 1    
    10   22    6 1    
    11   19    7 1    
    12   38    7 1    
    13   39    7 1    
    14   40    7 1    
    15   19    8 1    
    16   41    8 1    
    17   42    8 1    
    18   43    8 1    
    19   10    9 ar   
    20   13    9 ar   
    21   27    9 1    
    22   25   10 ar   
    23   28   10 1    
    24   12   11 ar   
    25   14   11 ar   
    26   29   11 1    
    27   15   12 ar   
    28   30   12 1    
    29   17   13 ar   
    30   31   13 1    
    31   17   14 ar   
    32   32   14 1    
    33   23   15 1    
    34   24   15 ar   
    35   21   16 2    
    36   23   16 1    
    37   24   17 ar   
    38   19   18 1    
    39   21   18 1    
    40   20   19 1    
    41   44   20 1    
    42   45   20 1    
    43   46   20 1    
    44   33   22 1    
    45   34   22 1    
    46   35   23 1    
    47   36   23 1    
    48   25   24 ar   
    49   37   25 1    
@<TRIPOS>SUBSTRUCTURE
     1 0JN302      1 GROUP   
@<TRIPOS>SET

