#    Name: 4e02_ANP_2_INTS_M
#    Modification time : Tue Mar 25 10:27:22 2014

@<TRIPOS>MOLECULE
4e02_ANP_2_INTS_M
   61     0    12     0     0
SMALL
NO_CHARGES


@<TRIPOS>ATOM
      1 Zn          5.3490  -33.1080   -1.7495 Zn        3 ZIC7        0.0000 
      2 Zn          4.2570  -33.1780   -1.5680 Zn       11 ZIL7        0.0000 
      3 Zn          6.4410  -33.0380   -1.9310 Zn        7 ZIP7        0.0000 
      4 N           3.8080  -31.9565   -0.7965 N.am      2 SEC2        0.0000 
      5 N           4.2570  -33.1780   -1.5680 N.am     10 SEL2        0.0000 
      6 N           3.3590  -30.7350   -0.0250 N.am      6 SEP2        0.0000 
      7 N           1.6200  -32.1815   -1.8920 N.am      2 SEC2        0.0000 
      8 N           1.9610  -33.4860   -1.9710 N.am     10 SEL2        0.0000 
      9 N           1.2790  -30.8770   -1.8130 N.am      6 SEP2        0.0000 
     10 N           3.9775  -32.8370   -7.0000 N.am      2 SEC2        0.0000 
     11 N           4.8280  -32.6560   -6.0370 N.am     10 SEL2        0.0000 
     12 N           3.1270  -33.0180   -7.9630 N.am      6 SEP2        0.0000 
     13 Zn          6.3020  -33.1070   -3.0070 Zn        3 ZIC7        0.0000 
     14 Zn          6.1630  -33.1760   -4.0830 Zn       11 ZIL7        0.0000 
     15 N           5.0580  -28.8710   -1.2520 N.am      2 SEC2        0.0000 
     16 N           4.7660  -29.1340   -2.6450 N.am     10 SEL2        0.0000 
     17 N           5.3500  -28.6080    0.1410 N.am      6 SEP2        0.0000 
     18 Zn          6.3675  -31.9565   -2.0315 Zn        3 ZIC7        0.0000 
     19 Zn          6.2940  -30.8750   -2.1320 Zn       11 ZIL7        0.0000 
     20 N           7.7205  -30.8890   -1.7730 N.am      2 SEC2        0.0000 
     21 N           6.2940  -30.8750   -2.1320 N.am     10 SEL2        0.0000 
     22 N           9.1470  -30.9030   -1.4140 N.am      6 SEP2        0.0000 
     23 N           5.8220  -29.7415   -0.9955 N.am      2 SEC2        0.0000 
     24 CA          6.7070  -27.1085   -5.8615 C.3       4 GLC5        0.0000 
     25 CA          6.0450  -29.1630   -5.5550 C.3      12 GLL5        0.0000 
     26 CA          7.3690  -25.0540   -6.1680 C.3       8 GLP5        0.0000 
     27 CA          7.1715  -27.9580   -4.1930 C.3       4 GLC5        0.0000 
     28 CA          8.2980  -26.7530   -2.8310 C.3       8 GLP5        0.0000 
     29 CA          7.4345  -27.3850   -7.1435 C.3       4 GLC5        0.0000 
     30 CA          6.9820  -29.2600   -6.7540 C.3      12 GLL5        0.0000 
     31 CA          7.8870  -25.5100   -7.5330 C.3       8 GLP5        0.0000 
     32 CA          5.9325  -28.1210   -8.3085 C.3       4 GLC5        0.0000 
     33 CA          4.8830  -26.9820   -9.8630 C.3       8 GLP5        0.0000 
     34 N           5.4310  -31.4265   -8.9070 N.am      2 SEC2        0.0000 
     35 N           6.3490  -31.3990   -7.6230 N.am     10 SEL2        0.0000 
     36 N           4.5130  -31.4540  -10.1910 N.am      6 SEP2        0.0000 
     37 N           6.8130  -31.6175   -9.1680 N.am      2 SEC2        0.0000 
     38 N           7.2770  -31.8360  -10.7130 N.am      6 SEP2        0.0000 
     39 O           7.7235  -31.0030   -9.9580 O.2       1 ALC1        0.0000 
     40 O           8.1700  -30.1700   -9.2030 O.2       9 ALL1        0.0000 
     41 O           7.2770  -31.8360  -10.7130 O.2       5 ALP1        0.0000 
     42 CA         10.8855  -27.8465   -7.2890 C.3       4 GLC5        0.0000 
     43 CA          9.2060  -29.3300   -7.2330 C.3      12 GLL5        0.0000 
     44 CA         12.5650  -26.3630   -7.3450 C.3       8 GLP5        0.0000 
     45 CA          8.5465  -27.4200   -7.3830 C.3       4 GLC5        0.0000 
     46 CA         11.5595  -31.1070   -3.7320 C.3       4 GLC5        0.0000 
     47 CA         12.1370  -29.8640   -5.2690 C.3      12 GLL5        0.0000 
     48 CA         10.9820  -32.3500   -2.1950 C.3       8 GLP5        0.0000 
     49 CA         14.0310  -31.7225   -6.2930 C.3       4 GLC5        0.0000 
     50 CA         13.5120  -30.1060   -5.3290 C.3      12 GLL5        0.0000 
     51 CA         14.5500  -33.3390   -7.2570 C.3       8 GLP5        0.0000 
     52 CA         15.0895  -28.7385   -5.0895 C.3       4 GLC5        0.0000 
     53 CA         16.6670  -27.3710   -4.8500 C.3       8 GLP5        0.0000 
     54 O          15.6675  -30.6280   -3.9435 O.2       1 ALC1        0.0000 
     55 O          14.2890  -30.2820   -4.1120 O.2       9 ALL1        0.0000 
     56 O          17.0460  -30.9740   -3.7750 O.2       5 ALP1        0.0000 
     57 CA         13.9840  -31.6930   -7.4635 C.3       4 GLC5        0.0000 
     58 CA         13.4180  -30.0470   -7.6700 C.3      12 GLL5        0.0000 
     59 CA         12.9915  -28.2050   -7.5075 C.3       4 GLC5        0.0000 
     60 CA         12.3511  -28.1085   -6.6152 C.3       4 GLC5        0.0000 
     61 CA         11.4500  -29.7230   -6.4720 C.3      12 GLL5        0.0000 
@<TRIPOS>BOND
@<TRIPOS>SUBSTRUCTURE
     1 ALC1       39 GROUP        1 X    ALC  0     ROOT ALC X 1
     2 SEC2        4 GROUP        1 X    SEC  0     **** SEC X 2
     3 ZIC7        1 GROUP        1 X    ZIC  0     **** ZIC X 5
     4 GLC5       24 GROUP        1 X    GLC  0     **** GLC X 6
     5 ALP1       41 GROUP        1 Y    ALP  0     ROOT ALP Y 8
     6 SEP2        6 GROUP        1 Y    SEP  0     **** SEP Y 9
     7 ZIP7        3 GROUP        1 Y    ZIP  0     **** ZIP Y 12
     8 GLP5       26 GROUP        1 Y    GLP  0     **** GLP Y 13
     9 ALL1       40 GROUP        1 Z    ALL  0     ROOT ALL Z 15
    10 SEL2        5 GROUP        1 Z    SEL  0     **** SEL Z 16
    11 ZIL7        2 GROUP        1 Z    ZIL  0     **** ZIL Z 19
    12 GLL5       25 GROUP        1 Z    GLL  0     **** GLL Z 20
@<TRIPOS>SET

