#    Name: 4e02_ANP_2_ligand
#    Modification time : Tue Mar 25 10:27:22 2014

@<TRIPOS>MOLECULE
4e02_ANP_2_ligand
   43    45     1     0     0
SMALL
NO_CHARGES


@<TRIPOS>ATOM
      1 PG          3.4020  -33.9410   -2.3580 P.3       1 ANP401      0.0000 
      2 O1G         3.5890  -35.4650   -2.0460 O.co2     1 ANP401      0.0000 
      3 O2G         4.2570  -33.1780   -1.5680 O.co2     1 ANP401      0.0000 
      4 O3G         1.9610  -33.4860   -1.9710 O.co2     1 ANP401      0.0000 
      5 PB          4.7720  -32.6740   -4.5160 P.3       1 ANP401      0.0000 
      6 O1B         4.8280  -32.6560   -6.0370 O.co2     1 ANP401      0.0000 
      7 O2B         6.1630  -33.1760   -4.0830 O.co2     1 ANP401      0.0000 
      8 N3B         3.6120  -33.6990   -4.0160 N.4       1 ANP401      0.0000 
      9 PA          5.5040  -30.2350   -3.2360 P.3       1 ANP401      0.0000 
     10 O1A         4.7660  -29.1340   -2.6450 O.co2     1 ANP401      0.0000 
     11 O2A         6.2940  -30.8750   -2.1320 O.co2     1 ANP401      0.0000 
     12 O3A         4.4510  -31.2500   -3.8500 O.3       1 ANP401      0.0000 
     13 O5'         6.4940  -29.7610   -4.3230 O.3       1 ANP401      0.0000 
     14 C5'         6.0450  -29.1630   -5.5550 C.3       1 ANP401      0.0000 
     15 C4'         6.9820  -29.2600   -6.7540 C.3       1 ANP401      0.0000 
     16 O4'         8.2250  -28.6390   -6.4660 O.3       1 ANP401      0.0000 
     17 C3'         7.3610  -30.6610   -7.0460 C.3       1 ANP401      0.0000 
     18 O3'         6.3490  -31.3990   -7.6230 O.3       1 ANP401      0.0000 
     19 C2'         8.5240  -30.4710   -7.8800 C.3       1 ANP401      0.0000 
     20 O2'         8.1700  -30.1700   -9.2030 O.3       1 ANP401      0.0000 
     21 C1'         9.2060  -29.3300   -7.2330 C.3       1 ANP401      0.0000 
     22 N9         10.1700  -29.4800   -6.1310 N.pl3     1 ANP401      0.0000 
     23 C8         10.0330  -29.5020   -4.7920 C.2       1 ANP401      0.0000 
     24 N7         11.2500  -29.7320   -4.2540 N.2       1 ANP401      0.0000 
     25 C5         12.1370  -29.8640   -5.2690 C.ar      1 ANP401      0.0000 
     26 C6         13.5120  -30.1060   -5.3290 C.ar      1 ANP401      0.0000 
     27 N6         14.2890  -30.2820   -4.1120 N.pl3     1 ANP401      0.0000 
     28 N1         14.1150  -30.1890   -6.5270 N.ar      1 ANP401      0.0000 
     29 C2         13.4180  -30.0470   -7.6700 C.ar      1 ANP401      0.0000 
     30 N3         12.1000  -29.8230   -7.6570 N.ar      1 ANP401      0.0000 
     31 C4         11.4500  -29.7230   -6.4720 C.ar      1 ANP401      0.0000 
     32 H           5.8143  -28.0714   -5.4009 H         1 ANP401      0.0000 
     33 H           5.0571  -29.6037   -5.8686 H         1 ANP401      0.0000 
     34 H           6.5248  -28.8283   -7.6103 H         1 ANP401      0.0000 
     35 H           7.7082  -31.0857   -6.0922 H         1 ANP401      0.0000 
     36 H           9.1620  -31.3299   -7.7993 H         1 ANP401      0.0000 
     37 H           9.5920  -28.6243   -7.9500 H         1 ANP401      0.0000 
     38 H           9.2136  -29.3763   -4.3023 H         1 ANP401      0.0000 
     39 H          13.7820  -30.2150   -3.2527 H         1 ANP401      0.0000 
     40 H          15.2661  -30.4555   -4.2350 H         1 ANP401      0.0000 
     41 H          13.9250  -30.1144   -8.5911 H         1 ANP401      0.0000 
     42 H           5.8688  -31.8239   -6.8556 H         1 ANP401      0.0000 
     43 H           8.1708  -31.0502   -9.6776 H         1 ANP401      0.0000 
@<TRIPOS>BOND
     1    2    1 ar   
     2    3    1 ar   
     3    4    1 ar   
     4    8    1 1    
     5    6    5 ar   
     6    7    5 ar   
     7    8    5 1    
     8   12    5 1    
     9   10    9 ar   
    10   11    9 ar   
    11   12    9 1    
    12   13    9 1    
    13   14   13 1    
    14   15   14 1    
    15   32   14 1    
    16   33   14 1    
    17   16   15 1    
    18   17   15 1    
    19   34   15 1    
    20   21   16 1    
    21   18   17 1    
    22   19   17 1    
    23   35   17 1    
    24   42   18 1    
    25   20   19 1    
    26   21   19 1    
    27   36   19 1    
    28   43   20 1    
    29   22   21 1    
    30   37   21 1    
    31   23   22 1    
    32   31   22 1    
    33   24   23 2    
    34   38   23 1    
    35   25   24 1    
    36   26   25 ar   
    37   31   25 ar   
    38   27   26 1    
    39   28   26 ar   
    40   39   27 1    
    41   40   27 1    
    42   29   28 ar   
    43   30   29 ar   
    44   41   29 1    
    45   31   30 ar   
@<TRIPOS>SUBSTRUCTURE
     1 ANP401      1 GROUP   
@<TRIPOS>SET

