#    Name: 3qgh_63F_1_INTS_M
#    Modification time : Mon Apr  7 19:32:56 2014

@<TRIPOS>MOLECULE
3qgh_63F_1_INTS_M
  123     0     9     0     0
SMALL
NO_CHARGES


@<TRIPOS>ATOM
      1 CA          5.8125   31.9205   49.8685 C.3       3 GLC5        0.0000 
      2 CA          7.5800   33.1010   49.3900 C.3       9 GLL5        0.0000 
      3 CA          4.0450   30.7400   50.3470 C.3       6 GLP5        0.0000 
      4 CA          7.5030   30.9635   49.8445 C.3       3 GLC5        0.0000 
      5 CA          7.4260   28.8260   50.2990 C.3       6 GLP5        0.0000 
      6 CA         10.4635   33.9205   53.0820 C.3       3 GLC5        0.0000 
      7 CA          9.1960   34.3280   51.3350 C.3       9 GLL5        0.0000 
      8 CA         11.7310   33.5130   54.8290 C.3       6 GLP5        0.0000 
      9 CA          7.4450   45.1995   47.0105 C.3       3 GLC5        0.0000 
     10 CA          7.3860   43.2170   46.3600 C.3       9 GLL5        0.0000 
     11 CA          7.5040   47.1820   47.6610 C.3       6 GLP5        0.0000 
     12 CA         11.4115   41.7260   45.9085 C.3       3 GLC5        0.0000 
     13 CA          9.3910   41.9120   45.7780 C.3       9 GLL5        0.0000 
     14 CA         13.4320   41.5400   46.0390 C.3       6 GLP5        0.0000 
     15 CA         10.6340   42.0080   47.5645 C.3       3 GLC5        0.0000 
     16 CA         11.8770   42.1040   49.3510 C.3       6 GLP5        0.0000 
     17 CA         10.1500   39.3245   47.1805 C.3       3 GLC5        0.0000 
     18 CA          9.0250   40.9230   46.7140 C.3       9 GLL5        0.0000 
     19 CA         11.2750   37.7260   47.6470 C.3       6 GLP5        0.0000 
     20 CA         -1.9800   32.9325   46.7330 C.3       3 GLC5        0.0000 
     21 CA         -1.8560   32.4850   44.7290 C.3       9 GLL5        0.0000 
     22 CA         -2.1040   33.3800   48.7370 C.3       6 GLP5        0.0000 
     23 CA         -0.3400   32.3040   45.8855 C.3       3 GLC5        0.0000 
     24 CA          1.1760   32.1230   47.0420 C.3       6 GLP5        0.0000 
     25 CA         -3.0605   31.2010   44.2565 C.3       3 GLC5        0.0000 
     26 CA         -4.2650   29.9170   43.7840 C.3       6 GLP5        0.0000 
     27 CA         -4.3445   33.2035   46.0195 C.3       3 GLC5        0.0000 
     28 CA         -2.8760   33.5770   44.8820 C.3       9 GLL5        0.0000 
     29 CA         -5.8130   32.8300   47.1570 C.3       6 GLP5        0.0000 
     30 CA         -2.4835   34.1550   46.6650 C.3       3 GLC5        0.0000 
     31 CA         -2.0910   34.7330   48.4480 C.3       6 GLP5        0.0000 
     32 CA         -4.0655   32.2350   44.0165 C.3       3 GLC5        0.0000 
     33 CA         -5.2550   30.8930   43.1510 C.3       6 GLP5        0.0000 
     34 CA          5.3815   38.3025   43.5605 C.3       3 GLC5        0.0000 
     35 CA          5.9760   38.1560   45.5390 C.3       9 GLL5        0.0000 
     36 CA          4.7870   38.4490   41.5820 C.3       6 GLP5        0.0000 
     37 CA          8.4975   37.0450   47.5735 C.3       3 GLC5        0.0000 
     38 CA          6.6250   37.8640   46.9260 C.3       9 GLL5        0.0000 
     39 CA         10.3700   36.2260   48.2210 C.3       6 GLP5        0.0000 
     40 CA         -0.9085   34.2405   42.0390 C.3       3 GLC5        0.0000 
     41 CA         -1.7000   33.7790   43.9470 C.3       9 GLL5        0.0000 
     42 CA         -0.1170   34.7020   40.1310 C.3       6 GLP5        0.0000 
     43 CA          3.9300   34.9170   49.4095 C.3       3 GLC5        0.0000 
     44 CA          5.9170   35.0290   49.4770 C.3       9 GLL5        0.0000 
     45 CA          1.9430   34.8050   49.3420 C.3       6 GLP5        0.0000 
     46 O          -1.2215   34.9195   45.7385 O.2       1 ALC1        0.0000 
     47 O          -0.6200   34.6720   44.3070 O.2       7 ALL1        0.0000 
     48 O          -1.8230   35.1670   47.1700 O.2       4 ALP1        0.0000 
     49 O           6.0515   36.8760   50.0675 O.2       1 ALC1        0.0000 
     50 O           6.1650   36.2690   48.7620 O.2       7 ALL1        0.0000 
     51 O           5.9380   37.4830   51.3730 O.2       4 ALP1        0.0000 
     52 N           0.6795   32.1165   43.3105 N.am      2 SEC2        0.0000 
     53 N           0.9850   33.5690   43.1680 N.am      8 SEL2        0.0000 
     54 N           0.3740   30.6640   43.4530 N.am      5 SEP2        0.0000 
     55 CA         12.9460   32.3990   53.1070 C.3       3 GLC5        0.0000 
     56 CA         12.8980   32.0470   51.0550 C.3       9 GLL5        0.0000 
     57 CA         12.9940   32.7510   55.1590 C.3       6 GLP5        0.0000 
     58 CA         10.4865   32.5455   47.8620 C.3       3 GLC5        0.0000 
     59 CA         11.9150   33.0540   49.4160 C.3       9 GLL5        0.0000 
     60 CA          9.0580   32.0370   46.3080 C.3       6 GLP5        0.0000 
     61 CA         12.1825   35.7390   52.0290 C.3       3 GLC5        0.0000 
     62 CA         12.3000   34.1840   51.2270 C.3       9 GLL5        0.0000 
     63 CA         12.0650   37.2940   52.8310 C.3       6 GLP5        0.0000 
     64 CA         14.1785   33.4705   50.9195 C.3       3 GLC5        0.0000 
     65 CA         16.0570   32.7570   50.6120 C.3       6 GLP5        0.0000 
     66 CA         12.2785   42.9095   45.5975 C.3       3 GLC5        0.0000 
     67 CA         11.1250   44.2790   45.1560 C.3       9 GLL5        0.0000 
     68 CA         12.4345   42.8175   43.2340 C.3       3 GLC5        0.0000 
     69 CA         10.5320   43.2300   43.3620 C.3       9 GLL5        0.0000 
     70 CA         14.3370   42.4050   43.1060 C.3       6 GLP5        0.0000 
     71 CA         10.7735   41.1290   43.5555 C.3       3 GLC5        0.0000 
     72 CA         11.0150   39.0280   43.7490 C.3       6 GLP5        0.0000 
     73 CA          9.6100   42.8120   42.0180 C.3       3 GLC5        0.0000 
     74 CA          8.6880   42.3940   40.6740 C.3       6 GLP5        0.0000 
     75 CA         11.8345   46.6825   43.5380 C.3       3 GLC5        0.0000 
     76 CA         10.1520   45.3760   43.5590 C.3       9 GLL5        0.0000 
     77 CA         13.5170   47.9890   43.5170 C.3       6 GLP5        0.0000 
     78 CA          9.7860   47.0060   43.1905 C.3       3 GLC5        0.0000 
     79 CA          9.4200   48.6360   42.8220 C.3       6 GLP5        0.0000 
     80 CA          9.6623   35.9207   52.3300 C.3       3 GLC5        0.0000 
     81 CA          8.0130   34.9570   50.9150 C.3       9 GLL5        0.0000 
     82 CA         10.7200   37.1990   53.5350 C.3       6 GLP5        0.0000 
     83 CA          8.4268   33.4108   52.6425 C.3       3 GLC5        0.0000 
     84 CA          8.2490   32.1790   54.1600 C.3       6 GLP5        0.0000 
     85 CA          8.7088   32.4742   52.2320 C.3       3 GLC5        0.0000 
     86 CA          8.7640   32.4630   49.8120 C.3       9 GLL5        0.0000 
     87 CA          9.1902   30.7443   50.4275 C.3       3 GLC5        0.0000 
     88 CA          9.5730   33.0760   50.7960 C.3       9 GLL5        0.0000 
     89 CA          9.2120   28.7190   50.5510 C.3       6 GLP5        0.0000 
     90 CA          8.4298   42.7700   48.5185 C.3       3 GLC5        0.0000 
     91 CA          7.0150   42.2410   47.2820 C.3       9 GLL5        0.0000 
     92 CA          9.6590   42.8110   50.2160 C.3       6 GLP5        0.0000 
     93 CA         10.1115   40.2227   44.9975 C.3       3 GLC5        0.0000 
     94 CA          9.0437   41.9115   48.6468 C.3       3 GLC5        0.0000 
     95 CA          1.8905   34.9410   46.1015 C.3       3 GLC5        0.0000 
     96 CA          3.0620   35.2570   44.1590 C.3       9 GLL5        0.0000 
     97 CA          1.4040   34.4800   47.9450 C.3       6 GLP5        0.0000 
     98 CA          4.8867   34.3085   44.1338 C.3       3 GLC5        0.0000 
     99 CA          6.2270   32.8990   43.8920 C.3       6 GLP5        0.0000 
    100 CA          4.1806   37.4980   43.1921 C.3       3 GLC5        0.0000 
    101 CA          3.6020   37.3760   45.2290 C.3       9 GLL5        0.0000 
    102 CA         -0.8915   31.6520   43.2580 C.3       3 GLC5        0.0000 
    103 CA         -0.0050   30.1720   42.1780 C.3       6 GLP5        0.0000 
    104 CA          7.8908   37.1530   45.4603 C.3       3 GLC5        0.0000 
    105 CA          9.4810   36.2960   44.6880 C.3       6 GLP5        0.0000 
    106 CA         13.2470   31.0050   51.7115 C.3       3 GLC5        0.0000 
    107 CA         11.9440   32.9530   50.7650 C.3       9 GLL5        0.0000 
    108 CA         14.0730   29.5100   52.5130 C.3       6 GLP5        0.0000 
    109 CA         11.9265   33.5408   52.9125 C.3       3 GLC5        0.0000 
    110 CA          8.9917   44.0328   42.5955 C.3       3 GLC5        0.0000 
    111 CA         10.1850   44.2010   44.2150 C.3       9 GLL5        0.0000 
    112 CA          7.8150   43.2770   41.3040 C.3       6 GLP5        0.0000 
    113 CA         12.0615   45.2130   45.3978 C.3       3 GLC5        0.0000 
    114 CA         13.4680   46.1860   46.1100 C.3       6 GLP5        0.0000 
    115 CA         13.8535   32.5375   49.7900 C.3       3 GLC5        0.0000 
    116 CA         15.5390   32.2980   49.4170 C.3       6 GLP5        0.0000 
    117 CA         11.2424   34.9099   49.4399 C.3       3 GLC5        0.0000 
    118 CA         11.4824   44.4697   42.4272 C.3       3 GLC5        0.0000 
    119 CA         12.5920   44.3840   41.0630 C.3       6 GLP5        0.0000 
    120 CA         10.1943   46.0170   45.7681 C.3       3 GLC5        0.0000 
    121 CA          9.9850   47.2260   47.4140 C.3       6 GLP5        0.0000 
    122 CA          9.3783   34.9684   49.2935 C.3       3 GLC5        0.0000 
    123 CA          7.1970   34.3430   49.9420 C.3       9 GLL5        0.0000 
@<TRIPOS>BOND
@<TRIPOS>SUBSTRUCTURE
     1 ALC1       46 GROUP        1 X    ALC  0     ROOT ALC X 1
     2 SEC2       52 GROUP        1 X    SEC  0     **** SEC X 2
     3 GLC5        1 GROUP        1 X    GLC  0     **** GLC X 6
     4 ALP1       48 GROUP        1 Y    ALP  0     ROOT ALP Y 8
     5 SEP2       54 GROUP        1 Y    SEP  0     **** SEP Y 9
     6 GLP5        3 GROUP        1 Y    GLP  0     **** GLP Y 13
     7 ALL1       47 GROUP        1 Z    ALL  0     ROOT ALL Z 15
     8 SEL2       53 GROUP        1 Z    SEL  0     **** SEL Z 16
     9 GLL5        2 GROUP        1 Z    GLL  0     **** GLL Z 20
@<TRIPOS>SET

