#    Name: 3qgh_63F_1_ligand
#    Modification time : Mon Apr  7 19:32:56 2014

@<TRIPOS>MOLECULE
3qgh_63F_1_ligand
   73    77     1     0     0
SMALL
NO_CHARGES


@<TRIPOS>ATOM
      1 C1          8.0130   34.9570   50.9150 C.ar      1 63F601      0.0000 
      2 C2          7.5800   33.1010   49.3900 C.ar      1 63F601      0.0000 
      3 C3          9.1960   34.3280   51.3350 C.ar      1 63F601      0.0000 
      4 C4          8.7640   32.4630   49.8120 C.ar      1 63F601      0.0000 
      5 C5          7.3860   43.2170   46.3600 C.ar      1 63F601      0.0000 
      6 C6          9.3910   41.9120   45.7780 C.ar      1 63F601      0.0000 
      7 C7          7.0150   42.2410   47.2820 C.ar      1 63F601      0.0000 
      8 C8          9.0250   40.9230   46.7140 C.ar      1 63F601      0.0000 
      9 C9          3.0620   35.2570   44.1590 C.ar      1 63F601      0.0000 
     10 C10         4.0310   36.1790   44.5920 C.ar      1 63F601      0.0000 
     11 C11         7.1970   34.3430   49.9420 C.ar      1 63F601      0.0000 
     12 C12         9.5730   33.0760   50.7960 C.ar      1 63F601      0.0000 
     13 C13         8.5770   43.0630   45.6090 C.ar      1 63F601      0.0000 
     14 C14         7.8320   41.1010   47.4410 C.ar      1 63F601      0.0000 
     15 C15         1.6920   35.5470   44.3570 C.ar      1 63F601      0.0000 
     16 C16         3.6020   37.3760   45.2290 C.ar      1 63F601      0.0000 
     17 C17         0.6550   34.5230   43.8900 C.2       1 63F601      0.0000 
     18 C18         6.3850   36.4250   47.4410 C.2       1 63F601      0.0000 
     19 C19        -1.8560   32.4850   44.7290 C.3       1 63F601      0.0000 
     20 C20        -2.8760   33.5770   44.8820 C.3       1 63F601      0.0000 
     21 C21         4.2150   39.5030   46.4500 C.3       1 63F601      0.0000 
     22 C22         4.7300   39.3100   47.8840 C.3       1 63F601      0.0000 
     23 C23         5.9760   38.1560   45.5390 C.3       1 63F601      0.0000 
     24 C24         6.6250   37.8640   46.9260 C.3       1 63F601      0.0000 
     25 C25        -1.7000   33.7790   43.9470 C.3       1 63F601      0.0000 
     26 C26         5.9170   35.0290   49.4770 C.3       1 63F601      0.0000 
     27 C27        11.9440   32.9530   50.7650 C.3       1 63F601      0.0000 
     28 C28        10.1850   44.2010   44.2150 C.3       1 63F601      0.0000 
     29 N29         1.3320   36.7180   44.9680 N.ar      1 63F601      0.0000 
     30 N30         2.2630   37.6090   45.3940 N.ar      1 63F601      0.0000 
     31 N31         4.5130   38.3000   45.6600 N.3       1 63F601      0.0000 
     32 N32         6.1740   38.9160   47.8730 N.pl3     1 63F601      0.0000 
     33 N33        -0.6200   34.6720   44.3070 N.am      1 63F601      0.0000 
     34 N34         6.1650   36.2690   48.7620 N.am      1 63F601      0.0000 
     35 O35         0.9850   33.5690   43.1680 O.2       1 63F601      0.0000 
     36 O36         6.4010   35.4840   46.6670 O.2       1 63F601      0.0000 
     37 O37         6.6380   40.6770   49.6710 O.2       1 63F601      0.0000 
     38 O38         8.5020   39.0360   48.9010 O.2       1 63F601      0.0000 
     39 O39        10.7450   32.5400   51.2620 O.3       1 63F601      0.0000 
     40 O40         8.9530   44.0110   44.6990 O.3       1 63F601      0.0000 
     41 F41        12.8980   32.0470   51.0550 F         1 63F601      0.0000 
     42 F42        11.9150   33.0540   49.4160 F         1 63F601      0.0000 
     43 F43        12.3000   34.1840   51.2270 F         1 63F601      0.0000 
     44 F44        11.1250   44.2790   45.1560 F         1 63F601      0.0000 
     45 F45        10.5320   43.2300   43.3620 F         1 63F601      0.0000 
     46 F46        10.1520   45.3760   43.5590 F         1 63F601      0.0000 
     47 S47         7.3380   39.8940   48.6430 S.o2      1 63F601      0.0000 
     48 H           7.7410   35.8587   51.3121 H         1 63F601      0.0000 
     49 H           6.9906   32.6600   48.6756 H         1 63F601      0.0000 
     50 H           9.7940   34.7760   52.0374 H         1 63F601      0.0000 
     51 H           9.0361   31.5673   49.4122 H         1 63F601      0.0000 
     52 H           6.8061   44.0477   46.2178 H         1 63F601      0.0000 
     53 H          10.2383   41.8048   45.2211 H         1 63F601      0.0000 
     54 H           6.1678   42.3407   47.8376 H         1 63F601      0.0000 
     55 H           9.6040   40.1082   46.8588 H         1 63F601      0.0000 
     56 H           3.3396   34.3889   43.7074 H         1 63F601      0.0000 
     57 H           5.0180   36.0010   44.4563 H         1 63F601      0.0000 
     58 H          -2.2049   31.8307   44.1370 H         1 63F601      0.0000 
     59 H          -1.2641   32.5227   45.4697 H         1 63F601      0.0000 
     60 H          -2.6926   34.0476   45.6863 H         1 63F601      0.0000 
     61 H          -3.6333   33.3556   44.3535 H         1 63F601      0.0000 
     62 H           4.7046   40.3778   46.0263 H         1 63F601      0.0000 
     63 H           3.1426   39.6838   46.4938 H         1 63F601      0.0000 
     64 H           4.1331   38.5364   48.3667 H         1 63F601      0.0000 
     65 H           4.5997   40.2447   48.4291 H         1 63F601      0.0000 
     66 H           6.2343   37.3303   44.8720 H         1 63F601      0.0000 
     67 H           6.4283   39.0700   45.1475 H         1 63F601      0.0000 
     68 H           7.7191   37.9887   46.7787 H         1 63F601      0.0000 
     69 H          -2.0483   33.5675   43.0496 H         1 63F601      0.0000 
     70 H           5.2853   35.2098   50.3681 H         1 63F601      0.0000 
     71 H           5.3602   34.3142   48.8409 H         1 63F601      0.0000 
     72 H          -0.8855   35.4772   44.9356 H         1 63F601      0.0000 
     73 H           6.1655   37.1439   49.3949 H         1 63F601      0.0000 
@<TRIPOS>BOND
     1    3    1 ar   
     2   11    1 ar   
     3   48    1 1    
     4    4    2 ar   
     5   11    2 ar   
     6   49    2 1    
     7   12    3 ar   
     8   50    3 1    
     9   12    4 ar   
    10   51    4 1    
    11    7    5 ar   
    12   13    5 ar   
    13   52    5 1    
    14    8    6 ar   
    15   13    6 ar   
    16   53    6 1    
    17   14    7 ar   
    18   54    7 1    
    19   14    8 ar   
    20   55    8 1    
    21   10    9 ar   
    22   15    9 ar   
    23   56    9 1    
    24   16   10 ar   
    25   57   10 1    
    26   26   11 1    
    27   39   12 1    
    28   40   13 1    
    29   47   14 1    
    30   17   15 1    
    31   29   15 ar   
    32   30   16 ar   
    33   31   16 1    
    34   33   17 am   
    35   35   17 2    
    36   24   18 1    
    37   34   18 am   
    38   36   18 2    
    39   20   19 1    
    40   25   19 1    
    41   58   19 1    
    42   59   19 1    
    43   25   20 1    
    44   60   20 1    
    45   61   20 1    
    46   22   21 1    
    47   31   21 1    
    48   62   21 1    
    49   63   21 1    
    50   32   22 1    
    51   64   22 1    
    52   65   22 1    
    53   24   23 1    
    54   31   23 1    
    55   66   23 1    
    56   67   23 1    
    57   32   24 1    
    58   68   24 1    
    59   33   25 1    
    60   69   25 1    
    61   34   26 1    
    62   70   26 1    
    63   71   26 1    
    64   39   27 1    
    65   41   27 1    
    66   42   27 1    
    67   43   27 1    
    68   40   28 1    
    69   44   28 1    
    70   45   28 1    
    71   46   28 1    
    72   30   29 ar   
    73   47   32 1    
    74   72   33 1    
    75   73   34 1    
    76   47   37 2    
    77   47   38 2    
@<TRIPOS>SUBSTRUCTURE
     1 63F601      1 GROUP   
@<TRIPOS>SET

