#    Name: 1mp8_ADP_1_INTS_M
#    Modification time : Tue Mar 25 12:01:14 2014

@<TRIPOS>MOLECULE
1mp8_ADP_1_INTS_M
   68     0    12     0     0
SMALL
NO_CHARGES


@<TRIPOS>ATOM
      1 NZ         34.1570   -8.0205   23.2805 N.4       3 LYC4        0.0000 
      2 NZ         32.7350   -8.0440   23.5400 N.4      11 LYL4        0.0000 
      3 NZ         35.5790   -7.9970   23.0210 N.4       7 LYP4        0.0000 
      4 N          34.1570   -8.0205   23.2805 N.am      2 SEC2        0.0000 
      5 N          32.7350   -8.0440   23.5400 N.am     10 SEL2        0.0000 
      6 N          35.5790   -7.9970   23.0210 N.am      6 SEP2        0.0000 
      7 N          32.6210   -9.0920   22.7065 N.am      2 SEC2        0.0000 
      8 N          32.5070  -10.1400   21.8730 N.am      6 SEP2        0.0000 
      9 N          30.2130   -6.7055   24.5925 N.am      2 SEC2        0.0000 
     10 N          30.8410   -6.4300   23.2880 N.am     10 SEL2        0.0000 
     11 N          29.5850   -6.9810   25.8970 N.am      6 SEP2        0.0000 
     12 NZ         34.1955   -7.2350   22.3220 N.4       3 LYC4        0.0000 
     13 NZ         32.8120   -6.4730   21.6230 N.4      11 LYL4        0.0000 
     14 N          34.1955   -7.2350   22.3220 N.am      2 SEC2        0.0000 
     15 N          32.8120   -6.4730   21.6230 N.am     10 SEL2        0.0000 
     16 NZ         35.3530   -6.6045   22.9060 N.4       3 LYC4        0.0000 
     17 NZ         35.1270   -5.2120   22.7910 N.4      11 LYL4        0.0000 
     18 N          35.3530   -6.6045   22.9060 N.am      2 SEC2        0.0000 
     19 N          35.1270   -5.2120   22.7910 N.am     10 SEL2        0.0000 
     20 CA         32.9075   -3.2325   27.7960 C.3       4 GLC5        0.0000 
     21 CA         33.7360   -3.1940   25.7460 C.3      12 GLL5        0.0000 
     22 CA         32.0790   -3.2710   29.8460 C.3       8 GLP5        0.0000 
     23 CA         32.4700   -4.3715   26.3340 C.3       4 GLC5        0.0000 
     24 CA         31.2040   -5.5490   26.9220 C.3       8 GLP5        0.0000 
     25 CA         34.8145   -1.5245   28.2215 C.3       4 GLC5        0.0000 
     26 CA         34.5620   -2.0100   26.1940 C.3      12 GLL5        0.0000 
     27 CA         35.0670   -1.0390   30.2490 C.3       8 GLP5        0.0000 
     28 O          33.8720    0.7400   25.5745 O.2       1 ALC1        0.0000 
     29 O          34.0300   -0.2510   24.6790 O.2       9 ALL1        0.0000 
     30 O          33.7140    1.7310   26.4700 O.2       5 ALP1        0.0000 
     31 O          34.7485    1.1260   26.5865 O.2       1 ALC1        0.0000 
     32 O          35.7830    0.5210   26.7030 O.2       9 ALL1        0.0000 
     33 CA         35.9465   -1.2960   28.3915 C.3       4 GLC5        0.0000 
     34 CA         36.8260   -1.5530   26.5340 C.3      12 GLL5        0.0000 
     35 CA         37.5215   -3.1755   27.5240 C.3       4 GLC5        0.0000 
     36 CA         38.2170   -4.7980   28.5140 C.3       8 GLP5        0.0000 
     37 O          43.0025   -4.0290   23.4325 O.2       1 ALC1        0.0000 
     38 O          41.5630   -3.7790   23.5830 O.2       9 ALL1        0.0000 
     39 O          44.4420   -4.2790   23.2820 O.2       5 ALP1        0.0000 
     40 N          43.0725   -1.3715   24.5365 N.am      2 SEC2        0.0000 
     41 N          41.7570   -1.8640   24.9330 N.am     10 SEL2        0.0000 
     42 N          44.3880   -0.8790   24.1400 N.am      6 SEP2        0.0000 
     43 CA         40.8930   -1.3470   27.3980 C.3       4 GLC5        0.0000 
     44 CA         41.1670   -0.9020   25.6970 C.3      12 GLL5        0.0000 
     45 CA         40.6190   -1.7920   29.0990 C.3       8 GLP5        0.0000 
     46 CA         41.7310   -2.9595   26.2485 C.3       4 GLC5        0.0000 
     47 CA         42.2950   -5.0170   26.8000 C.3       8 GLP5        0.0000 
     48 CA         42.6690   -1.3100   26.7575 C.3       4 GLC5        0.0000 
     49 CA         44.1710   -1.7180   27.8180 C.3       8 GLP5        0.0000 
     50 CA         42.1770   -0.1950   24.0930 C.3       4 GLC5        0.0000 
     51 CA         43.1870    0.5120   22.4890 C.3       8 GLP5        0.0000 
     52 CA         39.8565   -1.9000   27.3305 C.3       4 GLC5        0.0000 
     53 CA         39.0940   -2.0080   25.5620 C.3      12 GLL5        0.0000 
     54 CA         38.6395   -0.7845   23.9445 C.3       4 GLC5        0.0000 
     55 CA         38.1850    0.4390   22.3270 C.3       8 GLP5        0.0000 
     56 CA         34.9870   -4.0160   27.1265 C.3       4 GLC5        0.0000 
     57 CA         35.8250   -5.4300   28.2830 C.3       8 GLP5        0.0000 
     58 CA         35.3895    1.0032   25.1193 C.3       4 GLC5        0.0000 
     59 CA         35.0540   -1.1060   25.0790 C.3      12 GLL5        0.0000 
     60 CA         35.1370    2.7660   24.8280 C.3       8 GLP5        0.0000 
     61 CA         36.9135   -0.1603   23.8688 C.3       4 GLC5        0.0000 
     62 CA         36.2300   -0.4130   25.7420 C.3      12 GLL5        0.0000 
     63 CA         38.7983   -3.6487   26.8410 C.3       4 GLC5        0.0000 
     64 CA         41.3170   -3.9858   25.7037 C.3       4 GLC5        0.0000 
     65 CA         39.6650   -2.9910   24.7740 C.3      12 GLL5        0.0000 
     66 CA         39.9960   -2.1623   23.0162 C.3       4 GLC5        0.0000 
     67 CA         41.0130   -2.9180   24.4410 C.3      12 GLL5        0.0000 
     68 CA         39.6530   -1.3700   21.4250 C.3       8 GLP5        0.0000 
@<TRIPOS>BOND
@<TRIPOS>SUBSTRUCTURE
     1 ALC1       28 GROUP        1 X    ALC  0     ROOT ALC X 1
     2 SEC2        4 GROUP        1 X    SEC  0     **** SEC X 2
     3 LYC4        1 GROUP        1 X    LYC  0     **** LYC X 4
     4 GLC5       20 GROUP        1 X    GLC  0     **** GLC X 6
     5 ALP1       30 GROUP        1 Y    ALP  0     ROOT ALP Y 8
     6 SEP2        6 GROUP        1 Y    SEP  0     **** SEP Y 9
     7 LYP4        3 GROUP        1 Y    LYP  0     **** LYP Y 11
     8 GLP5       22 GROUP        1 Y    GLP  0     **** GLP Y 13
     9 ALL1       29 GROUP        1 Z    ALL  0     ROOT ALL Z 15
    10 SEL2        5 GROUP        1 Z    SEL  0     **** SEL Z 16
    11 LYL4        2 GROUP        1 Z    LYL  0     **** LYL Z 18
    12 GLL5       21 GROUP        1 Z    GLL  0     **** GLL Z 20
@<TRIPOS>SET

