#    Name: 1mp8_ADP_1_ligand
#    Modification time : Tue Mar 25 12:01:14 2014

@<TRIPOS>MOLECULE
1mp8_ADP_1_ligand
   39    41     1     0     0
SMALL
NO_CHARGES


@<TRIPOS>ATOM
      1 PB         32.3330   -6.6830   23.0840 P.3       1 ADP800      0.0000 
      2 O1B        32.7350   -8.0440   23.5400 O.co2     1 ADP800      0.0000 
      3 O2B        30.8410   -6.4300   23.2880 O.co2     1 ADP800      0.0000 
      4 O3B        32.8120   -6.4730   21.6230 O.co2     1 ADP800      0.0000 
      5 PA         34.0680   -4.5220   23.5180 P.3       1 ADP800      0.0000 
      6 O1A        35.1270   -5.2120   22.7910 O.co2     1 ADP800      0.0000 
      7 O2A        33.4700   -3.3730   22.7340 O.co2     1 ADP800      0.0000 
      8 O3A        32.9620   -5.5440   24.0330 O.3       1 ADP800      0.0000 
      9 O5'        34.5470   -4.0490   24.9720 O.3       1 ADP800      0.0000 
     10 C5'        33.7360   -3.1940   25.7460 C.3       1 ADP800      0.0000 
     11 C4'        34.5620   -2.0100   26.1940 C.3       1 ADP800      0.0000 
     12 O4'        35.7660   -2.4420   26.7690 O.3       1 ADP800      0.0000 
     13 C3'        35.0540   -1.1060   25.0790 C.3       1 ADP800      0.0000 
     14 O3'        34.0300   -0.2510   24.6790 O.3       1 ADP800      0.0000 
     15 C2'        36.2300   -0.4130   25.7420 C.3       1 ADP800      0.0000 
     16 O2'        35.7830    0.5210   26.7030 O.3       1 ADP800      0.0000 
     17 C1'        36.8260   -1.5530   26.5340 C.3       1 ADP800      0.0000 
     18 N9         37.7910   -2.3250   25.7410 N.pl3     1 ADP800      0.0000 
     19 C8         37.5600   -3.5040   25.0710 C.2       1 ADP800      0.0000 
     20 N7         38.7040   -3.9100   24.4760 N.2       1 ADP800      0.0000 
     21 C5         39.6650   -2.9910   24.7740 C.ar      1 ADP800      0.0000 
     22 C6         41.0130   -2.9180   24.4410 C.ar      1 ADP800      0.0000 
     23 N6         41.5630   -3.7790   23.5830 N.pl3     1 ADP800      0.0000 
     24 N1         41.7570   -1.8640   24.9330 N.ar      1 ADP800      0.0000 
     25 C2         41.1670   -0.9020   25.6970 C.ar      1 ADP800      0.0000 
     26 N3         39.8240   -0.9680   26.0350 N.ar      1 ADP800      0.0000 
     27 C4         39.0940   -2.0080   25.5620 C.ar      1 ADP800      0.0000 
     28 H          33.3482   -3.6936   26.6417 H         1 ADP800      0.0000 
     29 H          32.8795   -2.8125   25.1774 H         1 ADP800      0.0000 
     30 H          34.0096   -1.4080   26.8909 H         1 ADP800      0.0000 
     31 H          35.4347   -1.7410   24.3092 H         1 ADP800      0.0000 
     32 H          36.8982   -0.0787   25.0532 H         1 ADP800      0.0000 
     33 H          37.2494   -1.1993   27.4222 H         1 ADP800      0.0000 
     34 H          36.7093   -3.9595   25.0389 H         1 ADP800      0.0000 
     35 H          40.9446   -4.4529   23.1787 H         1 ADP800      0.0000 
     36 H          42.5441   -3.6730   23.4214 H         1 ADP800      0.0000 
     37 H          41.7303   -0.0929   26.0406 H         1 ADP800      0.0000 
     38 H          33.9699    0.4368   25.4024 H         1 ADP800      0.0000 
     39 H          34.7849    0.4713   26.6674 H         1 ADP800      0.0000 
@<TRIPOS>BOND
     1    2    1 ar   
     2    3    1 ar   
     3    4    1 ar   
     4    8    1 1    
     5    6    5 ar   
     6    7    5 ar   
     7    8    5 1    
     8    9    5 1    
     9   10    9 1    
    10   11   10 1    
    11   28   10 1    
    12   29   10 1    
    13   12   11 1    
    14   13   11 1    
    15   30   11 1    
    16   17   12 1    
    17   14   13 1    
    18   15   13 1    
    19   31   13 1    
    20   38   14 1    
    21   16   15 1    
    22   17   15 1    
    23   32   15 1    
    24   39   16 1    
    25   18   17 1    
    26   33   17 1    
    27   19   18 1    
    28   27   18 1    
    29   20   19 2    
    30   34   19 1    
    31   21   20 1    
    32   22   21 ar   
    33   27   21 ar   
    34   23   22 1    
    35   24   22 ar   
    36   35   23 1    
    37   36   23 1    
    38   25   24 ar   
    39   26   25 ar   
    40   37   25 1    
    41   27   26 ar   
@<TRIPOS>SUBSTRUCTURE
     1 ADP800      1 GROUP   
@<TRIPOS>SET

