#    Name: 2oz7_CA4_1_INTS_M
#    Modification time : Mon Mar 24 18:04:16 2014

@<TRIPOS>MOLECULE
2oz7_CA4_1_INTS_M
   88     0     6     0     0
SMALL
NO_CHARGES


@<TRIPOS>ATOM
      1 CA         24.9730    5.6535    2.5830 C.3       2 GLC5        0.0000 
      2 CA         25.3710    5.4860    4.3600 C.3       6 GLL5        0.0000 
      3 CA         24.5750    5.8210    0.8060 C.3       4 GLP5        0.0000 
      4 CA         24.1685    0.7360    5.3445 C.3       2 GLC5        0.0000 
      5 CA         25.8560    1.8540    4.7240 C.3       6 GLL5        0.0000 
      6 CA         22.4810   -0.3820    5.9650 C.3       4 GLP5        0.0000 
      7 CA         28.9105    3.8335    7.6110 C.3       2 GLC5        0.0000 
      8 CA         27.7830    4.1280    6.1340 C.3       6 GLL5        0.0000 
      9 CA         30.0380    3.5390    9.0880 C.3       4 GLP5        0.0000 
     10 CA         26.7830    2.4710    7.1430 C.3       2 GLC5        0.0000 
     11 CA         25.7830    0.8140    8.1520 C.3       4 GLP5        0.0000 
     12 CA         26.2845    5.1295    7.1570 C.3       2 GLC5        0.0000 
     13 CA         24.7860    6.1310    8.1800 C.3       4 GLP5        0.0000 
     14 CA         27.9725    4.9225    1.1195 C.3       2 GLC5        0.0000 
     15 CA         27.9610    5.8950    2.6730 C.3       6 GLL5        0.0000 
     16 CA         27.9840    3.9500   -0.4340 C.3       4 GLP5        0.0000 
     17 CA         28.1375    7.5210    1.9300 C.3       2 GLC5        0.0000 
     18 CA         28.3140    9.1470    1.1870 C.3       4 GLP5        0.0000 
     19 CA         28.4905    8.0625    3.0495 C.3       2 GLC5        0.0000 
     20 CA         27.5610    6.6960    3.9160 C.3       6 GLL5        0.0000 
     21 CA         29.4200    9.4290    2.1830 C.3       4 GLP5        0.0000 
     22 N          26.2095    9.0320    4.4600 N.am      1 SEC2        0.0000 
     23 N          25.4290    7.7430    4.1380 N.am      5 SEL2        0.0000 
     24 N          26.9900   10.3210    4.7820 N.am      3 SEP2        0.0000 
     25 N          24.5075    9.1085    3.8995 N.am      1 SEC2        0.0000 
     26 N          23.5860   10.4740    3.6610 N.am      3 SEP2        0.0000 
     27 CA         22.3095    2.7425    6.0810 C.3       2 GLC5        0.0000 
     28 CA         23.5410    3.2460    4.7440 C.3       6 GLL5        0.0000 
     29 CA         21.0780    2.2390    7.4180 C.3       4 GLP5        0.0000 
     30 CA         23.8065    3.8815    2.8140 C.3       2 GLC5        0.0000 
     31 CA         24.0720    4.5170    0.8840 C.3       4 GLP5        0.0000 
     32 CA         21.9595    2.5390    4.1145 C.3       2 GLC5        0.0000 
     33 CA         20.3780    1.8320    3.4850 C.3       4 GLP5        0.0000 
     34 CA         23.0110    1.4320    5.3545 C.3       2 GLC5        0.0000 
     35 CA         30.0190    1.1405    7.2565 C.3       2 GLC5        0.0000 
     36 CA         29.8460    0.1050    5.3430 C.3       6 GLL5        0.0000 
     37 CA         30.1920    2.1760    9.1700 C.3       4 GLP5        0.0000 
     38 CA         28.5135   -0.0700    6.9435 C.3       2 GLC5        0.0000 
     39 CA         27.1810   -0.2450    8.5440 C.3       4 GLP5        0.0000 
     40 CA         29.8595   -1.7265    6.3435 C.3       2 GLC5        0.0000 
     41 CA         29.8730   -3.5580    7.3440 C.3       4 GLP5        0.0000 
     42 CA         31.4965    0.9495    5.7650 C.3       2 GLC5        0.0000 
     43 CA         33.1470    1.7940    6.1870 C.3       4 GLP5        0.0000 
     44 CA         27.2655   -0.5845    6.5155 C.3       2 GLC5        0.0000 
     45 CA         27.3500   -0.9240    4.4870 C.3       6 GLL5        0.0000 
     46 CA         25.2950   -1.5490    4.4510 C.3       2 GLC5        0.0000 
     47 CA         23.2400   -2.1740    4.4150 C.3       4 GLP5        0.0000 
     48 CA         28.1365   -3.8270    3.0440 C.3       2 GLC5        0.0000 
     49 CA         28.3530   -1.9110    3.8730 C.3       6 GLL5        0.0000 
     50 CA         27.9200   -5.7430    2.2150 C.3       4 GLP5        0.0000 
     51 CA         29.1130   -2.7345    5.6085 C.3       2 GLC5        0.0000 
     52 CA         30.6200   -3.7330    5.3445 C.3       2 GLC5        0.0000 
     53 CA         31.1210   -2.7110    4.2700 C.3       6 GLL5        0.0000 
     54 CA         30.1190   -4.7550    6.4190 C.3       4 GLP5        0.0000 
     55 CA         31.7810   -3.6335    2.7465 C.3       2 GLC5        0.0000 
     56 CA         32.4410   -4.5560    1.2230 C.3       4 GLP5        0.0000 
     57 CA         32.9285   -2.8185    4.2390 C.3       2 GLC5        0.0000 
     58 CA         34.7360   -2.9260    4.2080 C.3       4 GLP5        0.0000 
     59 N          32.4710    0.0170    2.7500 N.am      1 SEC2        0.0000 
     60 N          31.6470   -1.3520    2.3680 N.am      5 SEL2        0.0000 
     61 N          33.2950    1.3860    3.1320 N.am      3 SEP2        0.0000 
     62 CA         28.6900   -0.0495   -0.8025 C.3       2 GLC5        0.0000 
     63 CA         28.6380   -1.7700   -0.4820 C.3       6 GLL5        0.0000 
     64 CA         28.7420    1.6710   -1.1230 C.3       4 GLP5        0.0000 
     65 CA         27.5310   -1.5380   -2.2925 C.3       2 GLC5        0.0000 
     66 CA         26.4240   -1.3060   -4.1030 C.3       4 GLP5        0.0000 
     67 CA         27.1675   -1.9045    0.1605 C.3       2 GLC5        0.0000 
     68 CA         25.6970   -2.0390    0.8030 C.3       4 GLP5        0.0000 
     69 CA         28.4060   -3.8130    0.1830 C.3       2 GLC5        0.0000 
     70 CA         28.1740   -5.8560    0.8480 C.3       4 GLP5        0.0000 
     71 CA         25.2415    5.5020    6.2885 C.3       2 GLC5        0.0000 
     72 CA         26.0230    4.2600    4.4340 C.3       6 GLL5        0.0000 
     73 CA         24.8570    4.1005    2.7033 C.3       2 GLC5        0.0000 
     74 CA         25.2610    3.1080    4.6110 C.3       6 GLL5        0.0000 
     75 CA         30.0395    2.6695    1.8093 C.3       2 GLC5        0.0000 
     76 CA         29.5410    2.7440    3.9590 C.3       6 GLL5        0.0000 
     77 CA         30.3230    3.2360    0.0200 C.3       4 GLP5        0.0000 
     78 CA         31.4515    1.9485    4.8928 C.3       2 GLC5        0.0000 
     79 CA         29.9710    1.4620    3.2380 C.3       6 GLL5        0.0000 
     80 CA         26.1251    1.4472    6.4099 C.3       2 GLC5        0.0000 
     81 CA         27.3760    1.6800    4.6680 C.3       6 GLL5        0.0000 
     82 CA         29.7142    6.3842    4.8208 C.3       2 GLC5        0.0000 
     83 CA         28.3140    5.3730    4.0650 C.3       6 GLL5        0.0000 
     84 CA         31.4910    6.7340    5.6510 C.3       4 GLP5        0.0000 
     85 CA         26.1680    6.0582    2.0503 C.3       2 GLC5        0.0000 
     86 CA         26.8790   -1.9196    3.0780 C.3       2 GLC5        0.0000 
     87 CA         29.3940   -1.0580    3.1380 C.3       6 GLL5        0.0000 
     88 CA         25.5340   -2.9710    2.3040 C.3       4 GLP5        0.0000 
@<TRIPOS>BOND
@<TRIPOS>SUBSTRUCTURE
     1 SEC2       22 GROUP        1 X    SEC  0     ROOT SEC X 2
     2 GLC5        1 GROUP        1 X    GLC  0     **** GLC X 6
     3 SEP2       24 GROUP        1 Y    SEP  0     ROOT SEP Y 9
     4 GLP5        3 GROUP        1 Y    GLP  0     **** GLP Y 13
     5 SEL2       23 GROUP        1 Z    SEL  0     ROOT SEL Z 16
     6 GLL5        2 GROUP        1 Z    GLL  0     **** GLL Z 20
@<TRIPOS>SET

