#    Name: 2oz7_CA4_1_ligand
#    Modification time : Mon Mar 24 18:04:16 2014

@<TRIPOS>MOLECULE
2oz7_CA4_1_ligand
   58    62     1     0     0
SMALL
NO_CHARGES


@<TRIPOS>ATOM
      1 C4         25.3710    5.4860    4.3600 C.2       1 CA41        0.0000 
      2 C14        27.7990    0.4200    3.9100 C.3       1 CA41        0.0000 
      3 C5         26.0230    4.2600    4.4340 C.2       1 CA41        0.0000 
      4 C6         25.2610    3.1080    4.6110 C.2       1 CA41        0.0000 
      5 C11        29.5410    2.7440    3.9590 C.3       1 CA41        0.0000 
      6 C7         25.8560    1.8540    4.7240 C.2       1 CA41        0.0000 
      7 C8         27.3760    1.6800    4.6680 C.3       1 CA41        0.0000 
      8 C9         28.0150    2.8790    3.9640 C.3       1 CA41        0.0000 
      9 C10        27.5410    4.1740    4.6230 C.3       1 CA41        0.0000 
     10 C12        29.9710    1.4620    3.2380 C.3       1 CA41        0.0000 
     11 C13        29.3160    0.2570    3.9150 C.3       1 CA41        0.0000 
     12 C3         26.0480    6.6800    4.1380 C.2       1 CA41        0.0000 
     13 C19        27.7830    4.1280    6.1340 C.3       1 CA41        0.0000 
     14 C1         28.3140    5.3730    4.0650 C.3       1 CA41        0.0000 
     15 C22        27.9610    5.8950    2.6730 C.3       1 CA41        0.0000 
     16 C2         27.5610    6.6960    3.9160 C.3       1 CA41        0.0000 
     17 O3         25.4290    7.7430    4.1380 O.2       1 CA41        0.0000 
     18 CL6        23.5410    3.2460    4.7440 Cl        1 CA41        0.0000 
     19 C18        29.8460    0.1050    5.3430 C.3       1 CA41        0.0000 
     20 C15        27.3500   -0.9240    4.4870 C.3       1 CA41        0.0000 
     21 C16        28.3530   -1.9110    3.8730 C.3       1 CA41        0.0000 
     22 C17        29.3940   -1.0580    3.1380 C.3       1 CA41        0.0000 
     23 C20        30.7950   -1.6720    3.1960 C.2       1 CA41        0.0000 
     24 C21        31.1210   -2.7110    4.2700 C.3       1 CA41        0.0000 
     25 O20        31.6470   -1.3520    2.3680 O.2       1 CA41        0.0000 
     26 O17        28.9720   -0.8100    1.7920 O.3       1 CA41        0.0000 
     27 C23        29.0160   -1.9120    0.9930 C.2       1 CA41        0.0000 
     28 C24        28.6380   -1.7700   -0.4820 C.3       1 CA41        0.0000 
     29 O23        29.3700   -3.0040    1.4370 O.2       1 CA41        0.0000 
     30 H          24.3318    5.5109    4.4757 H         1 CA41        0.0000 
     31 H          27.4933    0.4646    2.8802 H         1 CA41        0.0000 
     32 H          29.9017    2.7162    4.9846 H         1 CA41        0.0000 
     33 H          29.9751    3.6027    3.4521 H         1 CA41        0.0000 
     34 H          25.3191    0.9981    4.8482 H         1 CA41        0.0000 
     35 H          27.7693    1.6318    5.6687 H         1 CA41        0.0000 
     36 H          27.6674    2.8761    2.9292 H         1 CA41        0.0000 
     37 H          31.0469    1.3645    3.2922 H         1 CA41        0.0000 
     38 H          29.6556    1.5097    2.2044 H         1 CA41        0.0000 
     39 H          29.2320    5.5971    4.2220 H         1 CA41        0.0000 
     40 H          27.1945    5.4275    2.3794 H         1 CA41        0.0000 
     41 H          28.7366    6.2980    2.3148 H         1 CA41        0.0000 
     42 H          28.1570    7.3974    4.0026 H         1 CA41        0.0000 
     43 H          26.3755   -1.1520    4.1515 H         1 CA41        0.0000 
     44 H          27.4546   -0.9175    5.5373 H         1 CA41        0.0000 
     45 H          27.8503   -2.5440    3.1752 H         1 CA41        0.0000 
     46 H          28.8290   -2.4672    4.6504 H         1 CA41        0.0000 
     47 H          28.7573    4.0742    6.3526 H         1 CA41        0.0000 
     48 H          27.4242    4.9410    6.5925 H         1 CA41        0.0000 
     49 H          27.3436    3.3353    6.5565 H         1 CA41        0.0000 
     50 H          30.8403   -0.0001    5.3609 H         1 CA41        0.0000 
     51 H          29.6251    0.9002    5.9077 H         1 CA41        0.0000 
     52 H          29.4583   -0.6957    5.7998 H         1 CA41        0.0000 
     53 H          32.0638   -3.0364    4.1979 H         1 CA41        0.0000 
     54 H          31.0086   -2.3401    5.1918 H         1 CA41        0.0000 
     55 H          30.5281   -3.5134    4.2026 H         1 CA41        0.0000 
     56 H          29.2338   -1.1228   -0.9574 H         1 CA41        0.0000 
     57 H          28.7048   -2.6414   -0.9681 H         1 CA41        0.0000 
     58 H          27.7000   -1.4424   -0.5951 H         1 CA41        0.0000 
@<TRIPOS>BOND
     1    3    1 2    
     2   12    1 1    
     3   30    1 1    
     4    7    2 1    
     5   11    2 1    
     6   20    2 1    
     7   31    2 1    
     8    4    3 1    
     9    9    3 1    
    10    6    4 2    
    11   18    4 1    
    12    8    5 1    
    13   10    5 1    
    14   32    5 1    
    15   33    5 1    
    16    7    6 1    
    17   34    6 1    
    18    8    7 1    
    19   35    7 1    
    20    9    8 1    
    21   36    8 1    
    22   13    9 1    
    23   14    9 1    
    24   11   10 1    
    25   37   10 1    
    26   38   10 1    
    27   19   11 1    
    28   22   11 1    
    29   16   12 1    
    30   17   12 2    
    31   47   13 1    
    32   48   13 1    
    33   49   13 1    
    34   15   14 1    
    35   16   14 1    
    36   39   14 1    
    37   16   15 1    
    38   40   15 1    
    39   41   15 1    
    40   42   16 1    
    41   50   19 1    
    42   51   19 1    
    43   52   19 1    
    44   21   20 1    
    45   43   20 1    
    46   44   20 1    
    47   22   21 1    
    48   45   21 1    
    49   46   21 1    
    50   23   22 1    
    51   26   22 1    
    52   24   23 1    
    53   25   23 2    
    54   53   24 1    
    55   54   24 1    
    56   55   24 1    
    57   27   26 1    
    58   28   27 1    
    59   29   27 2    
    60   56   28 1    
    61   57   28 1    
    62   58   28 1    
@<TRIPOS>SUBSTRUCTURE
     1 CA41        1 GROUP   
@<TRIPOS>SET

