#    Name: 1qan_SAH_1_INTS_M
#    Modification time : Mon Mar 24 23:17:26 2014

@<TRIPOS>MOLECULE
1qan_SAH_1_INTS_M
   77     0    12     0     0
SMALL
NO_CHARGES


@<TRIPOS>ATOM
      1 OD1        10.9670   36.9145   24.2035 O.co2     3 ASC3        0.0000 
      2 OD1        12.0740   37.0810   22.6250 O.co2    11 ASL3        0.0000 
      3 OD1         9.8600   36.7480   25.7820 O.co2     7 ASP3        0.0000 
      4 O          12.8015   36.8475   24.0350 O.2       1 ALC1        0.0000 
      5 O          12.0740   37.0810   22.6250 O.2       9 ALL1        0.0000 
      6 O          13.5290   36.6140   25.4450 O.2       5 ALP1        0.0000 
      7 O          11.0045   38.0365   23.3780 O.2       1 ALC1        0.0000 
      8 O           9.9350   38.9920   24.1310 O.2       5 ALP1        0.0000 
      9 O          11.6795   36.0255   23.6275 O.2       1 ALC1        0.0000 
     10 O          11.2850   34.9700   24.6300 O.2       5 ALP1        0.0000 
     11 CA         13.3770   34.9775   21.5130 C.3       4 GLC5        0.0000 
     12 CA         14.7660   36.3330   21.8170 C.3      12 GLL5        0.0000 
     13 CA         11.9880   33.6220   21.2090 C.3       8 GLP5        0.0000 
     14 CA         18.3255   36.8060   20.6015 C.3       4 GLC5        0.0000 
     15 CA         16.5060   36.0930   21.2720 C.3      12 GLL5        0.0000 
     16 CA         20.1450   37.5190   19.9310 C.3       8 GLP5        0.0000 
     17 CA         17.0690   36.5780   19.1745 C.3       4 GLC5        0.0000 
     18 CA         17.6320   37.0630   17.0770 C.3       8 GLP5        0.0000 
     19 N          12.1430   38.5940   18.5105 N.am      2 SEC2        0.0000 
     20 N          12.0590   38.3160   19.9330 N.am     10 SEL2        0.0000 
     21 N          12.2270   38.8720   17.0880 N.am      6 SEP2        0.0000 
     22 CA         18.3755   33.7235   23.0285 C.3       4 GLC5        0.0000 
     23 CA         17.3250   35.3590   22.7440 C.3      12 GLL5        0.0000 
     24 CA         19.4260   32.0880   23.3130 C.3       8 GLP5        0.0000 
     25 CA         16.0400   35.9400   25.6280 C.3       4 GLC5        0.0000 
     26 CA         17.1900   36.1740   24.0520 C.3      12 GLL5        0.0000 
     27 CA         14.8900   35.7060   27.2040 C.3       8 GLP5        0.0000 
     28 CA         16.4960   38.9400   24.4220 C.3       4 GLC5        0.0000 
     29 CA         18.0460   37.4530   24.1750 C.3      12 GLL5        0.0000 
     30 CA         14.9460   40.4270   24.6690 C.3       8 GLP5        0.0000 
     31 O          17.0155   38.5910   26.0225 O.2       1 ALC1        0.0000 
     32 O          17.3440   38.5690   24.6940 O.2       9 ALL1        0.0000 
     33 O          16.6870   38.6130   27.3510 O.2       5 ALP1        0.0000 
     34 O          18.0885   38.6375   26.2650 O.2       1 ALC1        0.0000 
     35 O          18.8330   38.7060   27.8360 O.2       5 ALP1        0.0000 
     36 O          19.3490   38.3460   26.7755 O.2       1 ALC1        0.0000 
     37 O          19.8650   37.9860   25.7150 O.2       9 ALL1        0.0000 
     38 CA         16.7150   35.8550   26.5890 C.3       4 GLC5        0.0000 
     39 CA         18.5400   36.0040   25.9740 C.3      12 GLL5        0.0000 
     40 CA         20.1575   36.3990   27.4110 C.3       4 GLC5        0.0000 
     41 CA         21.7750   36.7940   28.8480 C.3       8 GLP5        0.0000 
     42 CA         20.9060   34.6245   29.7500 C.3       4 GLC5        0.0000 
     43 CA         20.3540   32.8200   29.2090 C.3      12 GLL5        0.0000 
     44 CA         21.4580   36.4290   30.2910 C.3       8 GLP5        0.0000 
     45 CA         19.3755   31.3670   29.8705 C.3       4 GLC5        0.0000 
     46 CA         18.3970   29.9140   30.5320 C.3       8 GLP5        0.0000 
     47 O          21.4915   31.5085   30.8535 O.2       1 ALC1        0.0000 
     48 O          21.2690   31.8490   29.4890 O.2       9 ALL1        0.0000 
     49 O          21.7140   31.1680   32.2180 O.2       5 ALP1        0.0000 
     50 N          19.2380   32.4910   31.5225 N.am      2 SEC2        0.0000 
     51 N          19.4820   33.1840   30.2110 N.am     10 SEL2        0.0000 
     52 N          18.9940   31.7980   32.8340 N.am      6 SEP2        0.0000 
     53 CA         17.7390   36.0565   30.3725 C.3       4 GLC5        0.0000 
     54 CA         18.5680   34.1590   29.9730 C.3      12 GLL5        0.0000 
     55 CA         16.9100   37.9540   30.7720 C.3       8 GLP5        0.0000 
     56 CA         20.0130   35.2940   30.1320 C.3       4 GLC5        0.0000 
     57 CA         19.6885   33.6875   31.8265 C.3       4 GLC5        0.0000 
     58 CA         20.8090   33.2160   33.6800 C.3       8 GLP5        0.0000 
     59 CA         17.9645   32.3145   30.7350 C.3       4 GLC5        0.0000 
     60 CA         17.3610   30.4700   31.4970 C.3       8 GLP5        0.0000 
     61 N          18.8610   36.1555   29.6735 N.am      2 SEC2        0.0000 
     62 N          18.4470   34.7980   28.7730 N.am     10 SEL2        0.0000 
     63 N          19.2750   37.5130   30.5740 N.am      6 SEP2        0.0000 
     64 CA         14.7043   39.3475   21.1730 C.3       4 GLC5        0.0000 
     65 CA         14.3410   37.8170   21.7690 C.3      12 GLL5        0.0000 
     66 CA         15.7880   40.6910   20.3690 C.3       8 GLP5        0.0000 
     67 CA         14.2832   39.2155   23.3230 C.3       4 GLC5        0.0000 
     68 CA         19.9307   37.9378   23.2488 C.3       4 GLC5        0.0000 
     69 CA         21.2220   38.6710   21.9260 C.3       8 GLP5        0.0000 
     70 CA         18.7323   39.2803   24.7828 C.3       4 GLC5        0.0000 
     71 CA         19.2330   36.9560   24.9680 C.3      12 GLL5        0.0000 
     72 CA         18.8250   41.3560   24.9940 C.3       8 GLP5        0.0000 
     73 CA         20.7948   35.3633   28.3633 C.3       4 GLC5        0.0000 
     74 CA         19.3230   34.4390   27.8010 C.3      12 GLL5        0.0000 
     75 CA         20.9030   31.3655   27.5147 C.3       4 GLC5        0.0000 
     76 CA         20.3060   33.4260   27.9560 C.3      12 GLL5        0.0000 
     77 CA         21.4760   29.6080   26.4470 C.3       8 GLP5        0.0000 
@<TRIPOS>BOND
@<TRIPOS>SUBSTRUCTURE
     1 ALC1        4 GROUP        1 X    ALC  0     ROOT ALC X 1
     2 SEC2       19 GROUP        1 X    SEC  0     **** SEC X 2
     3 ASC3        1 GROUP        1 X    ASC  0     **** ASC X 3
     4 GLC5       11 GROUP        1 X    GLC  0     **** GLC X 6
     5 ALP1        6 GROUP        1 Y    ALP  0     ROOT ALP Y 8
     6 SEP2       21 GROUP        1 Y    SEP  0     **** SEP Y 9
     7 ASP3        3 GROUP        1 Y    ASP  0     **** ASP Y 10
     8 GLP5       13 GROUP        1 Y    GLP  0     **** GLP Y 13
     9 ALL1        5 GROUP        1 Z    ALL  0     ROOT ALL Z 15
    10 SEL2       20 GROUP        1 Z    SEL  0     **** SEL Z 16
    11 ASL3        2 GROUP        1 Z    ASL  0     **** ASL Z 17
    12 GLL5       12 GROUP        1 Z    GLL  0     **** GLL Z 20
@<TRIPOS>SET

