#    Name: 1qan_SAH_1_ligand
#    Modification time : Mon Mar 24 23:17:26 2014

@<TRIPOS>MOLECULE
1qan_SAH_1_ligand
   46    48     1     0     0
SMALL
NO_CHARGES


@<TRIPOS>ATOM
      1 N          12.0740   37.0810   22.6250 N.4       1 SAH501      0.0000 
      2 CA         12.9000   38.1910   22.1850 C.3       1 SAH501      0.0000 
      3 CB         14.3410   37.8170   21.7690 C.3       1 SAH501      0.0000 
      4 CG         14.7660   36.3330   21.8170 C.3       1 SAH501      0.0000 
      5 SD         16.5060   36.0930   21.2720 S.3       1 SAH501      0.0000 
      6 C          12.3300   38.9740   20.9810 C.2       1 SAH501      0.0000 
      7 O          12.0590   38.3160   19.9330 O.co2     1 SAH501      0.0000 
      8 OXT        12.1820   40.2360   21.1140 O.co2     1 SAH501      0.0000 
      9 C5'        17.3250   35.3590   22.7440 C.3       1 SAH501      0.0000 
     10 C4'        17.1900   36.1740   24.0520 C.3       1 SAH501      0.0000 
     11 O4'        17.4970   35.3820   25.2130 O.3       1 SAH501      0.0000 
     12 C3'        18.0460   37.4530   24.1750 C.3       1 SAH501      0.0000 
     13 O3'        17.3440   38.5690   24.6940 O.3       1 SAH501      0.0000 
     14 C2'        19.2330   36.9560   24.9680 C.3       1 SAH501      0.0000 
     15 O2'        19.8650   37.9860   25.7150 O.3       1 SAH501      0.0000 
     16 C1'        18.5400   36.0040   25.9740 C.3       1 SAH501      0.0000 
     17 N9         19.4110   34.9330   26.5080 N.pl3     1 SAH501      0.0000 
     18 C8         20.4170   34.2340   25.9390 C.2       1 SAH501      0.0000 
     19 N7         20.9900   33.3320   26.7510 N.2       1 SAH501      0.0000 
     20 C5         20.3060   33.4260   27.9560 C.ar      1 SAH501      0.0000 
     21 C6         20.3540   32.8200   29.2090 C.ar      1 SAH501      0.0000 
     22 N6         21.2690   31.8490   29.4890 N.pl3     1 SAH501      0.0000 
     23 N1         19.4820   33.1840   30.2110 N.ar      1 SAH501      0.0000 
     24 C2         18.5680   34.1590   29.9730 C.ar      1 SAH501      0.0000 
     25 N3         18.4470   34.7980   28.7730 N.ar      1 SAH501      0.0000 
     26 C4         19.3230   34.4390   27.8010 C.ar      1 SAH501      0.0000 
     27 H          13.0137   38.9444   22.9941 H         1 SAH501      0.0000 
     28 H          15.0518   38.4054   22.4048 H         1 SAH501      0.0000 
     29 H          14.5140   38.1972   20.7292 H         1 SAH501      0.0000 
     30 H          14.2315   35.7143   21.1324 H         1 SAH501      0.0000 
     31 H          14.7839   35.9265   22.8027 H         1 SAH501      0.0000 
     32 H          18.3470   35.2623   22.4065 H         1 SAH501      0.0000 
     33 H          16.8573   34.3864   22.7986 H         1 SAH501      0.0000 
     34 H          16.1305   36.5025   24.1355 H         1 SAH501      0.0000 
     35 H          18.4207   37.6314   23.1473 H         1 SAH501      0.0000 
     36 H          19.8558   36.3848   24.3671 H         1 SAH501      0.0000 
     37 H          18.1210   36.5935   26.7567 H         1 SAH501      0.0000 
     38 H          20.7082   34.3801   24.9886 H         1 SAH501      0.0000 
     39 H          21.8835   31.5949   28.7421 H         1 SAH501      0.0000 
     40 H          21.2452   31.4763   30.4166 H         1 SAH501      0.0000 
     41 H          17.9123   34.4412   30.7585 H         1 SAH501      0.0000 
     42 H          11.1546   37.3805   22.8801 H         1 SAH501      0.0000 
     43 H          11.9693   36.3898   21.9101 H         1 SAH501      0.0000 
     44 H          12.4643   36.6210   23.4226 H         1 SAH501      0.0000 
     45 H          17.2158   38.3654   25.6646 H         1 SAH501      0.0000 
     46 H          19.1265   38.4241   26.2276 H         1 SAH501      0.0000 
@<TRIPOS>BOND
     1    2    1 1    
     2   42    1 1    
     3   43    1 1    
     4   44    1 1    
     5    3    2 1    
     6    6    2 1    
     7   27    2 1    
     8    4    3 1    
     9   28    3 1    
    10   29    3 1    
    11    5    4 1    
    12   30    4 1    
    13   31    4 1    
    14    9    5 1    
    15    7    6 ar   
    16    8    6 ar   
    17   10    9 1    
    18   32    9 1    
    19   33    9 1    
    20   11   10 1    
    21   12   10 1    
    22   34   10 1    
    23   16   11 1    
    24   13   12 1    
    25   14   12 1    
    26   35   12 1    
    27   45   13 1    
    28   15   14 1    
    29   16   14 1    
    30   36   14 1    
    31   46   15 1    
    32   17   16 1    
    33   37   16 1    
    34   18   17 1    
    35   26   17 1    
    36   19   18 2    
    37   38   18 1    
    38   20   19 1    
    39   21   20 ar   
    40   26   20 ar   
    41   22   21 1    
    42   23   21 ar   
    43   39   22 1    
    44   40   22 1    
    45   24   23 ar   
    46   25   24 ar   
    47   41   24 1    
    48   26   25 ar   
@<TRIPOS>SUBSTRUCTURE
     1 SAH501      1 GROUP   
@<TRIPOS>SET

