#    Name: 3w2j_QRO_2_INTS_M
#    Modification time : Tue Mar 25 02:04:23 2014

@<TRIPOS>MOLECULE
3w2j_QRO_2_INTS_M
   54     0    12     0     0
SMALL
NO_CHARGES


@<TRIPOS>ATOM
      1 NZ         -7.4330  -16.0955   14.8365 N.4       3 LYC4        0.0000 
      2 NZ         -6.0770  -15.7920   14.2000 N.4      11 LYL4        0.0000 
      3 NZ         -8.7890  -16.3990   15.4730 N.4       7 LYP4        0.0000 
      4 N          -5.7095  -17.0030   13.4880 N.am      2 SEC2        0.0000 
      5 N          -6.0770  -15.7920   14.2000 N.am     10 SEL2        0.0000 
      6 N          -5.3420  -18.2140   12.7760 N.am      6 SEP2        0.0000 
      7 N          -7.4330  -16.0955   14.8365 N.am      2 SEC2        0.0000 
      8 N          -8.7890  -16.3990   15.4730 N.am      6 SEP2        0.0000 
      9 N          -3.4685  -16.3040   14.2710 N.am      2 SEC2        0.0000 
     10 N          -4.0280  -14.8390   14.3940 N.am     10 SEL2        0.0000 
     11 N          -2.9090  -17.7690   14.1480 N.am      6 SEP2        0.0000 
     12 CA         -7.0635  -13.2470   15.8790 C.3       4 GLC5        0.0000 
     13 CA         -5.8890  -13.4680   14.1960 C.3      12 GLL5        0.0000 
     14 CA         -8.2380  -13.0260   17.5620 C.3       8 GLP5        0.0000 
     15 O          -4.5190  -12.9420   16.2705 O.2       1 ALC1        0.0000 
     16 O          -5.4360  -12.5740   15.2080 O.2       9 ALL1        0.0000 
     17 O          -3.6020  -13.3100   17.3330 O.2       5 ALP1        0.0000 
     18 N          -4.7050  -10.9660   17.3015 N.am      2 SEC2        0.0000 
     19 N          -5.4310  -10.5060   16.1210 N.am     10 SEL2        0.0000 
     20 N          -3.9790  -11.4260   18.4820 N.am      6 SEP2        0.0000 
     21 N          -4.8510   -9.2800   15.9725 N.am      2 SEC2        0.0000 
     22 N          -4.2710   -8.0540   15.8240 N.am      6 SEP2        0.0000 
     23 O          -6.9755   -9.4665   14.1570 O.2       1 ALC1        0.0000 
     24 O          -6.6380  -10.8280   14.2160 O.2       9 ALL1        0.0000 
     25 O          -7.3130   -8.1050   14.0980 O.2       5 ALP1        0.0000 
     26 N          -8.9535  -11.3730   11.4230 N.am      2 SEC2        0.0000 
     27 N          -7.8310  -11.1230   12.3570 N.am     10 SEL2        0.0000 
     28 N         -10.0760  -11.6230   10.4890 N.am      6 SEP2        0.0000 
     29 N          -8.1975   -9.7025   12.3390 N.am      2 SEC2        0.0000 
     30 N          -8.5640   -8.2820   12.3210 N.am      6 SEP2        0.0000 
     31 CA         -5.4375  -10.6705   10.1265 C.3       4 GLC5        0.0000 
     32 CA         -4.3270  -12.2740   10.9810 C.3      12 GLL5        0.0000 
     33 CA         -6.5480   -9.0670    9.2720 C.3       8 GLP5        0.0000 
     34 CA          1.2030  -13.7930   11.7290 C.3       4 GLC5        0.0000 
     35 CA         -0.7910  -13.4340   11.1180 C.3      12 GLL5        0.0000 
     36 CA          3.1970  -14.1520   12.3400 C.3       8 GLP5        0.0000 
     37 CA         -2.9245  -16.5780   11.8635 C.3       4 GLC5        0.0000 
     38 CA         -2.8910  -14.6460   10.8150 C.3      12 GLL5        0.0000 
     39 CA         -2.9580  -18.5100   12.9120 C.3       8 GLP5        0.0000 
     40 CA         -5.5600  -16.3820   10.7570 C.3       4 GLC5        0.0000 
     41 CA         -4.2970  -14.6450   10.6780 C.3      12 GLL5        0.0000 
     42 CA         -6.8230  -18.1190   10.8360 C.3       8 GLP5        0.0000 
     43 CA         -4.0850  -15.1675    8.9015 C.3       4 GLC5        0.0000 
     44 CA         -3.8730  -15.6900    7.1250 C.3       8 GLP5        0.0000 
     45 CA         -7.8565  -15.3230   11.1415 C.3       4 GLC5        0.0000 
     46 CA         -6.3890  -13.4440   10.7290 C.3      12 GLL5        0.0000 
     47 CA         -8.9950  -16.9840   10.9010 C.3       8 GLP5        0.0000 
     48 CA         -4.5297  -14.1135    8.8755 C.3       4 GLC5        0.0000 
     49 CA         -5.0610  -13.4510   10.7960 C.3      12 GLL5        0.0000 
     50 CA         -4.8880  -12.6680    6.9030 C.3       8 GLP5        0.0000 
     51 CA         -4.9570  -12.7644    8.8874 C.3       4 GLC5        0.0000 
     52 CA         -1.9273  -14.3457    9.1436 C.3       4 GLC5        0.0000 
     53 CA         -2.2050  -13.4520   11.0330 C.3      12 GLL5        0.0000 
     54 CA         -1.6600  -14.6470    7.3420 C.3       8 GLP5        0.0000 
@<TRIPOS>BOND
@<TRIPOS>SUBSTRUCTURE
     1 ALC1       15 GROUP        1 X    ALC  0     ROOT ALC X 1
     2 SEC2        4 GROUP        1 X    SEC  0     **** SEC X 2
     3 LYC4        1 GROUP        1 X    LYC  0     **** LYC X 4
     4 GLC5       12 GROUP        1 X    GLC  0     **** GLC X 6
     5 ALP1       17 GROUP        1 Y    ALP  0     ROOT ALP Y 8
     6 SEP2        6 GROUP        1 Y    SEP  0     **** SEP Y 9
     7 LYP4        3 GROUP        1 Y    LYP  0     **** LYP Y 11
     8 GLP5       14 GROUP        1 Y    GLP  0     **** GLP Y 13
     9 ALL1       16 GROUP        1 Z    ALL  0     ROOT ALL Z 15
    10 SEL2        5 GROUP        1 Z    SEL  0     **** SEL Z 16
    11 LYL4        2 GROUP        1 Z    LYL  0     **** LYL Z 18
    12 GLL5       13 GROUP        1 Z    GLL  0     **** GLL Z 20
@<TRIPOS>SET

