#    Name: 3w2j_QRO_2_ligand
#    Modification time : Tue Mar 25 02:04:23 2014

@<TRIPOS>MOLECULE
3w2j_QRO_2_ligand
   30    31     1     0     0
SMALL
NO_CHARGES


@<TRIPOS>ATOM
      1 OAA        -6.0770  -15.7920   14.2000 O.co2     1 QRO401      0.0000 
      2 CAN        -5.2550  -14.8400   14.2690 C.2       1 QRO401      0.0000 
      3 OAD        -4.0280  -14.8390   14.3940 O.co2     1 QRO401      0.0000 
      4 CAR        -5.8890  -13.4680   14.1960 C.2       1 QRO401      0.0000 
      5 NAL        -5.4360  -12.5740   15.2080 N.am      1 QRO401      0.0000 
      6 CAT        -5.8010  -11.2600   15.1810 C.2       1 QRO401      0.0000 
      7 OAB        -5.4310  -10.5060   16.1210 O.2       1 QRO401      0.0000 
      8 NAM        -6.6380  -10.8280   14.2160 N.am      1 QRO401      0.0000 
      9 CAU        -7.1350  -11.6590   13.2120 C.2       1 QRO401      0.0000 
     10 OAC        -7.8310  -11.1230   12.3570 O.2       1 QRO401      0.0000 
     11 CAS        -6.6780  -12.9800   13.1680 C.2       1 QRO401      0.0000 
     12 CAK        -7.0470  -13.8800   12.0350 C.3       1 QRO401      0.0000 
     13 CAJ        -6.3890  -13.4440   10.7290 C.3       1 QRO401      0.0000 
     14 CAO        -5.0610  -13.4510   10.7960 C.ar      1 QRO401      0.0000 
     15 CAI        -4.3270  -12.2740   10.9810 C.ar      1 QRO401      0.0000 
     16 CAQ        -2.9200  -12.3100   11.1050 C.ar      1 QRO401      0.0000 
     17 FAF        -2.2280  -11.2030   11.3720 F         1 QRO401      0.0000 
     18 CAP        -2.2050  -13.4520   11.0330 C.ar      1 QRO401      0.0000 
     19 FAE        -0.7910  -13.4340   11.1180 F         1 QRO401      0.0000 
     20 CAH        -2.8910  -14.6460   10.8150 C.ar      1 QRO401      0.0000 
     21 CAG        -4.2970  -14.6450   10.6780 C.ar      1 QRO401      0.0000 
     22 H          -4.8305  -12.9476   15.9528 H         1 QRO401      0.0000 
     23 H          -6.9427   -9.8170   14.2030 H         1 QRO401      0.0000 
     24 H          -8.1350  -13.8807   11.8965 H         1 QRO401      0.0000 
     25 H          -6.7373  -14.9083   12.2576 H         1 QRO401      0.0000 
     26 H          -6.8228  -12.4375   10.4886 H         1 QRO401      0.0000 
     27 H          -6.8038  -14.1210    9.9361 H         1 QRO401      0.0000 
     28 H          -4.8126  -11.3680   11.0281 H         1 QRO401      0.0000 
     29 H          -2.3799  -15.5335   10.7525 H         1 QRO401      0.0000 
     30 H          -4.7873  -15.5331   10.4870 H         1 QRO401      0.0000 
@<TRIPOS>BOND
     1    2    1 ar   
     2    3    2 ar   
     3    4    2 1    
     4    5    4 1    
     5   11    4 2    
     6    6    5 am   
     7   22    5 1    
     8    7    6 2    
     9    8    6 am   
    10    9    8 am   
    11   23    8 1    
    12   10    9 2    
    13   11    9 1    
    14   12   11 1    
    15   13   12 1    
    16   24   12 1    
    17   25   12 1    
    18   14   13 1    
    19   26   13 1    
    20   27   13 1    
    21   15   14 ar   
    22   21   14 ar   
    23   16   15 ar   
    24   28   15 1    
    25   17   16 1    
    26   18   16 ar   
    27   19   18 1    
    28   20   18 ar   
    29   21   20 ar   
    30   29   20 1    
    31   30   21 1    
@<TRIPOS>SUBSTRUCTURE
     1 QRO401      1 GROUP   
@<TRIPOS>SET

