#    Name: 2ym7_YM7_1_INTS_M
#    Modification time : Tue Mar 25 09:30:00 2014

@<TRIPOS>MOLECULE
2ym7_YM7_1_INTS_M
   56     0    12     0     0
SMALL
NO_CHARGES


@<TRIPOS>ATOM
      1 CA         19.8190   -1.1230   14.6965 C.3       4 GLC5        0.0000 
      2 CA         18.1130   -2.5210   14.3330 C.3      12 GLL5        0.0000 
      3 CA         21.5250    0.2750   15.0600 C.3       8 GLP5        0.0000 
      4 OD1        19.1310   -3.2045   14.8255 O.co2     3 ASC3        0.0000 
      5 OD1        17.4430   -3.7140   14.8150 O.co2    11 ASL3        0.0000 
      6 OD1        20.8190   -2.6950   14.8360 O.co2     7 ASP3        0.0000 
      7 CA         17.7190   -3.5365    8.7215 C.3       4 GLC5        0.0000 
      8 CA         17.7380   -3.1580   10.5620 C.3      12 GLL5        0.0000 
      9 CA         17.7000   -3.9150    6.8810 C.3       8 GLP5        0.0000 
     10 CA         17.8050   -5.3190   10.1395 C.3       4 GLC5        0.0000 
     11 CA         17.8720   -7.4800    9.7170 C.3       8 GLP5        0.0000 
     12 CA         15.1625   -2.0200    8.9155 C.3       4 GLC5        0.0000 
     13 CA         16.5890   -0.4980    9.7230 C.3      12 GLL5        0.0000 
     14 CA         13.7360   -3.5420    8.1080 C.3       8 GLP5        0.0000 
     15 CA         17.5135   -0.3285    7.0855 C.3       4 GLC5        0.0000 
     16 CA         18.2820    1.1880    8.3480 C.3      12 GLL5        0.0000 
     17 CA         16.7450   -1.8450    5.8230 C.3       8 GLP5        0.0000 
     18 CA         18.1005    3.2205    8.3740 C.3       4 GLC5        0.0000 
     19 CA         17.9190    5.2530    8.4000 C.3       8 GLP5        0.0000 
     20 N          16.9395    2.9860    8.1380 N.am      2 SEC2        0.0000 
     21 N          16.9250    1.5520    8.5670 N.am     10 SEL2        0.0000 
     22 N          16.9540    4.4200    7.7090 N.am      6 SEP2        0.0000 
     23 CA         14.6510    0.4890    7.9465 C.3       4 GLC5        0.0000 
     24 CA         16.1070    0.7530    9.2300 C.3      12 GLL5        0.0000 
     25 CA         13.1950    0.2250    6.6630 C.3       8 GLP5        0.0000 
     26 O          14.1985    2.4015    8.8750 O.2       1 ALC1        0.0000 
     27 O          14.8090    1.1580    9.4230 O.2       9 ALL1        0.0000 
     28 O          13.5880    3.6450    8.3270 O.2       5 ALP1        0.0000 
     29 CA         11.8660    2.8790   11.1735 C.3       4 GLC5        0.0000 
     30 CA         12.7430    1.2820   10.8050 C.3      12 GLL5        0.0000 
     31 CA         10.9890    4.4760   11.5420 C.3       8 GLP5        0.0000 
     32 CA         11.0895    1.5735    9.8415 C.3       4 GLC5        0.0000 
     33 CA          9.4360    1.8650    8.8780 C.3       8 GLP5        0.0000 
     34 CA          9.8225   -2.6665   12.3720 C.3       4 GLC5        0.0000 
     35 CA         11.0470   -1.1710   12.9890 C.3      12 GLL5        0.0000 
     36 CA          8.5980   -4.1620   11.7550 C.3       8 GLP5        0.0000 
     37 CA         10.6165   -0.7425   14.7880 C.3       4 GLC5        0.0000 
     38 CA         10.1860   -0.3140   16.5870 C.3       8 GLP5        0.0000 
     39 N           9.4475   -2.9785   13.9370 N.am      2 SEC2        0.0000 
     40 N          10.2720   -1.6600   13.6530 N.am     10 SEL2        0.0000 
     41 N           8.6230   -4.2970   14.2210 N.am      6 SEP2        0.0000 
     42 CA         13.0650   -3.1800   10.7840 C.3       4 GLC5        0.0000 
     43 CA         13.1680   -1.2860   11.6330 C.3      12 GLL5        0.0000 
     44 CA         12.9620   -5.0740    9.9350 C.3       8 GLP5        0.0000 
     45 CA         18.2153   -0.6048   13.7240 C.3       4 GLC5        0.0000 
     46 CA         18.4680   -2.6320   12.8770 C.3      12 GLL5        0.0000 
     47 CA         18.1400    1.3670   13.8430 C.3       8 GLP5        0.0000 
     48 CA         16.2180    1.0962   11.0162 C.3       4 GLC5        0.0000 
     49 CA         16.0880    2.0650   12.5560 C.3       8 GLP5        0.0000 
     50 CA         16.7223   -0.9011    7.6195 C.3       4 GLC5        0.0000 
     51 CA         13.2492    0.5673    8.6253 C.3       4 GLC5        0.0000 
     52 CA         13.8640    0.5370   10.3700 C.3      12 GLL5        0.0000 
     53 CA         14.6958    1.4872   11.5717 C.3       4 GLC5        0.0000 
     54 CA         10.1470   -0.4320   11.4688 C.3       4 GLC5        0.0000 
     55 CA         12.0330   -0.5250   12.0800 C.3      12 GLL5        0.0000 
     56 CA          8.7540   -0.0160   10.4030 C.3       8 GLP5        0.0000 
@<TRIPOS>BOND
@<TRIPOS>SUBSTRUCTURE
     1 ALC1       26 GROUP        1 X    ALC  0     ROOT ALC X 1
     2 SEC2       20 GROUP        1 X    SEC  0     **** SEC X 2
     3 ASC3        4 GROUP        1 X    ASC  0     **** ASC X 3
     4 GLC5        1 GROUP        1 X    GLC  0     **** GLC X 6
     5 ALP1       28 GROUP        1 Y    ALP  0     ROOT ALP Y 8
     6 SEP2       22 GROUP        1 Y    SEP  0     **** SEP Y 9
     7 ASP3        6 GROUP        1 Y    ASP  0     **** ASP Y 10
     8 GLP5        3 GROUP        1 Y    GLP  0     **** GLP Y 13
     9 ALL1       27 GROUP        1 Z    ALL  0     ROOT ALL Z 15
    10 SEL2       21 GROUP        1 Z    SEL  0     **** SEL Z 16
    11 ASL3        5 GROUP        1 Z    ASL  0     **** ASL Z 17
    12 GLL5        2 GROUP        1 Z    GLL  0     **** GLL Z 20
@<TRIPOS>SET

