#    Name: 2ym7_YM7_1_ligand
#    Modification time : Tue Mar 25 09:30:00 2014

@<TRIPOS>MOLECULE
2ym7_YM7_1_ligand
   40    42     1     0     0
SMALL
NO_CHARGES


@<TRIPOS>ATOM
      1 CAI        18.4680   -2.6320   12.8770 C.3       1 YM71272     0.0000 
      2 CAG        18.1130   -2.5210   14.3330 C.3       1 YM71272     0.0000 
      3 NAP        17.4430   -3.7140   14.8150 N.4       1 YM71272     0.0000 
      4 CAH        16.2640   -4.0430   14.0080 C.3       1 YM71272     0.0000 
      5 CAJ        16.5820   -4.1300   12.5420 C.3       1 YM71272     0.0000 
      6 CAW        17.2890   -2.9440   12.0570 C.3       1 YM71272     0.0000 
      7 CAK        17.7380   -3.1580   10.5620 C.3       1 YM71272     0.0000 
      8 NAQ        18.5570   -2.1370    9.9390 N.pl3     1 YM71272     0.0000 
      9 C6         17.9950   -0.8370    9.4810 C.ar      1 YM71272     0.0000 
     10 C5         16.5890   -0.4980    9.7230 C.ar      1 YM71272     0.0000 
     11 N1         18.7800    0.0120    8.8110 N.ar      1 YM71272     0.0000 
     12 C2         18.2820    1.1880    8.3480 C.ar      1 YM71272     0.0000 
     13 N3         16.9250    1.5520    8.5670 N.ar      1 YM71272     0.0000 
     14 C4         16.1070    0.7530    9.2300 C.ar      1 YM71272     0.0000 
     15 NAR        14.8090    1.1580    9.4230 N.pl3     1 YM71272     0.0000 
     16 CAT        13.8640    0.5370   10.3700 C.ar      1 YM71272     0.0000 
     17 CAE        12.7430    1.2820   10.8050 C.ar      1 YM71272     0.0000 
     18 NAN        11.8460    0.7270   11.6580 N.ar      1 YM71272     0.0000 
     19 CAS        12.0330   -0.5250   12.0800 C.ar      1 YM71272     0.0000 
     20 CAB        11.0470   -1.1710   12.9890 C.1       1 YM71272     0.0000 
     21 NAA        10.2720   -1.6600   13.6530 N.1       1 YM71272     0.0000 
     22 CAD        13.1680   -1.2860   11.6330 C.ar      1 YM71272     0.0000 
     23 NAO        14.0500   -0.7370   10.7950 N.ar      1 YM71272     0.0000 
     24 H          19.2326   -3.4149   12.7560 H         1 YM71272     0.0000 
     25 H          18.9193   -1.6833   12.5476 H         1 YM71272     0.0000 
     26 H          17.4716   -1.6329   14.4708 H         1 YM71272     0.0000 
     27 H          19.0384   -2.3368   14.9064 H         1 YM71272     0.0000 
     28 H          15.4773   -3.2814   14.1552 H         1 YM71272     0.0000 
     29 H          15.8356   -5.0074   14.3354 H         1 YM71272     0.0000 
     30 H          15.6389   -4.2676   11.9832 H         1 YM71272     0.0000 
     31 H          17.1894   -5.0358   12.3651 H         1 YM71272     0.0000 
     32 H          16.6153   -2.0874   12.0455 H         1 YM71272     0.0000 
     33 H          16.7919   -3.3269    9.9748 H         1 YM71272     0.0000 
     34 H          18.2536   -4.1588   10.5329 H         1 YM71272     0.0000 
     35 H          19.5539   -2.2994    9.8026 H         1 YM71272     0.0000 
     36 H          16.0029   -1.1318   10.2173 H         1 YM71272     0.0000 
     37 H          18.8809    1.8520    7.8215 H         1 YM71272     0.0000 
     38 H          14.4218    1.9687    8.8731 H         1 YM71272     0.0000 
     39 H          12.6305    2.2466   10.4583 H         1 YM71272     0.0000 
     40 H          13.2593   -2.2499   11.9854 H         1 YM71272     0.0000 
@<TRIPOS>BOND
     1    2    1 1    
     2    6    1 1    
     3   24    1 1    
     4   25    1 1    
     5    3    2 1    
     6   26    2 1    
     7   27    2 1    
     8    4    3 1    
     9    5    4 1    
    10   28    4 1    
    11   29    4 1    
    12    6    5 1    
    13   30    5 1    
    14   31    5 1    
    15    7    6 1    
    16   32    6 1    
    17    8    7 1    
    18   33    7 1    
    19   34    7 1    
    20    9    8 1    
    21   35    8 1    
    22   10    9 ar   
    23   11    9 ar   
    24   14   10 ar   
    25   36   10 1    
    26   12   11 ar   
    27   13   12 ar   
    28   37   12 1    
    29   14   13 ar   
    30   15   14 1    
    31   16   15 1    
    32   38   15 1    
    33   17   16 ar   
    34   23   16 ar   
    35   18   17 ar   
    36   39   17 1    
    37   19   18 ar   
    38   20   19 1    
    39   22   19 ar   
    40   21   20 3    
    41   23   22 ar   
    42   40   22 1    
@<TRIPOS>SUBSTRUCTURE
     1 YM71272     1 GROUP   
@<TRIPOS>SET

