#    Name: 3iof_IFS_1_INTS_M
#    Modification time : Tue Mar 25 17:01:20 2014

@<TRIPOS>MOLECULE
3iof_IFS_1_INTS_M
   48     0     3     0     0
SMALL
NO_CHARGES


@<TRIPOS>ATOM
      1 CA          2.4135   45.1840   45.0020 C.3       1 GLC5        0.0000 
      2 CA          3.5750   45.3880   46.8610 C.3       3 GLL5        0.0000 
      3 CA          1.2520   44.9800   43.1430 C.3       2 GLP5        0.0000 
      4 CA          4.1235   43.6095   46.0665 C.3       1 GLC5        0.0000 
      5 CA          4.6720   41.8310   45.2720 C.3       2 GLP5        0.0000 
      6 CA          2.3690   46.9845   46.3240 C.3       1 GLC5        0.0000 
      7 CA          1.1630   48.5810   45.7870 C.3       2 GLP5        0.0000 
      8 CA         -0.7620   47.5705   49.0750 C.3       1 GLC5        0.0000 
      9 CA          1.0520   48.1170   49.7120 C.3       3 GLL5        0.0000 
     10 CA         -2.5760   47.0240   48.4380 C.3       2 GLP5        0.0000 
     11 CA          8.3645   51.7410   49.2070 C.3       1 GLC5        0.0000 
     12 CA          6.8870   51.3010   50.3660 C.3       3 GLL5        0.0000 
     13 CA          9.8420   52.1810   48.0480 C.3       2 GLP5        0.0000 
     14 CA          6.8780   53.1325   51.0725 C.3       1 GLC5        0.0000 
     15 CA          6.8690   54.9640   51.7790 C.3       2 GLP5        0.0000 
     16 CA          7.8615   51.2255   51.8755 C.3       1 GLC5        0.0000 
     17 CA          8.8360   51.1500   53.3850 C.3       2 GLP5        0.0000 
     18 CA          8.0125   45.8670   44.9710 C.3       1 GLC5        0.0000 
     19 CA          7.4760   46.6310   46.7740 C.3       3 GLL5        0.0000 
     20 CA          8.5490   45.1030   43.1680 C.3       2 GLP5        0.0000 
     21 CA          8.0085   44.9220   47.6590 C.3       1 GLC5        0.0000 
     22 CA          8.5410   43.2130   48.5440 C.3       2 GLP5        0.0000 
     23 CA          5.3505   48.7665   53.1365 C.3       1 GLC5        0.0000 
     24 CA          6.0580   49.3830   51.8450 C.3       3 GLL5        0.0000 
     25 CA          4.6430   48.1500   54.4280 C.3       2 GLP5        0.0000 
     26 CA          7.1875   47.8465   51.1470 C.3       1 GLC5        0.0000 
     27 CA          8.3170   46.3100   50.4490 C.3       2 GLP5        0.0000 
     28 CA          7.5710   47.3970   43.9090 C.3       1 GLC5        0.0000 
     29 CA          7.4310   48.8370   45.5490 C.3       3 GLL5        0.0000 
     30 CA          7.7110   45.9570   42.2690 C.3       2 GLP5        0.0000 
     31 CA          6.8520   50.7680   45.4005 C.3       1 GLC5        0.0000 
     32 CA          6.2730   52.6990   45.2520 C.3       2 GLP5        0.0000 
     33 CA          2.2812   48.3185   47.3012 C.3       1 GLC5        0.0000 
     34 CA          3.5910   48.7810   48.7590 C.3       3 GLL5        0.0000 
     35 CA          3.0602   43.9760   48.3498 C.3       1 GLC5        0.0000 
     36 CA          4.0700   46.1180   48.4740 C.3       3 GLL5        0.0000 
     37 CA          2.2980   42.1990   49.0320 C.3       2 GLP5        0.0000 
     38 CA          1.3257   48.0900   47.6600 C.3       1 GLC5        0.0000 
     39 CA          1.9250   47.0810   49.3540 C.3       3 GLL5        0.0000 
     40 CA          1.6125   49.0973   47.5730 C.3       1 GLC5        0.0000 
     41 CA          1.4290   49.4490   49.5980 C.3       3 GLL5        0.0000 
     42 CA          7.8142   46.8420   48.6307 C.3       1 GLC5        0.0000 
     43 CA          7.1470   48.1170   46.8510 C.3       3 GLL5        0.0000 
     44 CA          7.6363   49.7873   51.9595 C.3       1 GLC5        0.0000 
     45 CA          5.9190   50.1240   50.5190 C.3       3 GLL5        0.0000 
     46 CA          9.2840   49.8210   52.7370 C.3       2 GLP5        0.0000 
     47 CA          7.8230   49.1095   44.5590 C.3       1 GLC5        0.0000 
     48 CA          8.3570   49.7420   42.9180 C.3       2 GLP5        0.0000 
@<TRIPOS>BOND
@<TRIPOS>SUBSTRUCTURE
     1 GLC5        1 GROUP        1 X    GLC  0     ROOT GLC X 6
     2 GLP5        3 GROUP        1 Y    GLP  0     ROOT GLP Y 13
     3 GLL5        2 GROUP        1 Z    GLL  0     ROOT GLL Z 20
@<TRIPOS>SET

