#    Name: 3iof_IFS_1_ligand
#    Modification time : Tue Mar 25 17:01:20 2014

@<TRIPOS>MOLECULE
3iof_IFS_1_ligand
   38    38     1     0     0
SMALL
NO_CHARGES


@<TRIPOS>ATOM
      1 C1          3.5910   48.7810   48.7590 C.ar      1 IFS308      0.0000 
      2 O1          5.1610   50.8020   47.7220 O.2       1 IFS308      0.0000 
      3 P1          5.1510   49.2880   48.2010 P.3       1 IFS308      0.0000 
      4 S1          3.5750   45.3880   46.8610 S.3       1 IFS308      0.0000 
      5 C2          3.2080   47.3310   48.8720 C.ar      1 IFS308      0.0000 
      6 C3          1.9250   47.0810   49.3540 C.ar      1 IFS308      0.0000 
      7 C4          1.0520   48.1170   49.7120 C.ar      1 IFS308      0.0000 
      8 C5          1.4290   49.4490   49.5980 C.ar      1 IFS308      0.0000 
      9 C6          2.6950   49.7780   49.1200 C.ar      1 IFS308      0.0000 
     10 C7          4.0700   46.1180   48.4740 C.3       1 IFS308      0.0000 
     11 C101        6.8870   51.3010   50.3660 C.3       1 IFS308      0.0000 
     12 C102        7.4760   46.6310   46.7740 C.3       1 IFS308      0.0000 
     13 O21         5.7420   48.2740   47.1100 O.3       1 IFS308      0.0000 
     14 O22         6.1360   49.1910   49.4500 O.3       1 IFS308      0.0000 
     15 C81         5.9190   50.1240   50.5190 C.3       1 IFS308      0.0000 
     16 C82         7.1470   48.1170   46.8510 C.3       1 IFS308      0.0000 
     17 C91         6.0580   49.3830   51.8450 C.3       1 IFS308      0.0000 
     18 C92         7.4310   48.8370   45.5490 C.3       1 IFS308      0.0000 
     19 H           1.6023   46.0973   49.4523 H         1 IFS308      0.0000 
     20 H           0.1088   47.8795   50.0678 H         1 IFS308      0.0000 
     21 H           0.7732   50.1949   49.8667 H         1 IFS308      0.0000 
     22 H           2.9667   50.7691   49.0344 H         1 IFS308      0.0000 
     23 H           5.0978   46.3615   48.3009 H         1 IFS308      0.0000 
     24 H           3.9663   45.2834   49.1361 H         1 IFS308      0.0000 
     25 H           4.9017   50.5161   50.4586 H         1 IFS308      0.0000 
     26 H           7.7259   48.5680   47.6315 H         1 IFS308      0.0000 
     27 H           7.8412   51.0034   50.3961 H         1 IFS308      0.0000 
     28 H           6.7562   51.7789   49.4974 H         1 IFS308      0.0000 
     29 H           6.7677   51.9769   51.0933 H         1 IFS308      0.0000 
     30 H           8.4480   46.4744   46.5987 H         1 IFS308      0.0000 
     31 H           7.2515   46.1563   47.6250 H         1 IFS308      0.0000 
     32 H           6.9691   46.1758   46.0420 H         1 IFS308      0.0000 
     33 H           6.9749   49.0019   51.9631 H         1 IFS308      0.0000 
     34 H           5.8875   49.9839   52.6259 H         1 IFS308      0.0000 
     35 H           5.4131   48.6219   51.9145 H         1 IFS308      0.0000 
     36 H           8.3946   48.7702   45.2902 H         1 IFS308      0.0000 
     37 H           6.8974   48.4599   44.7920 H         1 IFS308      0.0000 
     38 H           7.2099   49.8105   45.6071 H         1 IFS308      0.0000 
@<TRIPOS>BOND
     1    3    1 1    
     2    5    1 ar   
     3    9    1 ar   
     4    3    2 2    
     5   13    3 1    
     6   14    3 1    
     7   10    4 1    
     8    6    5 ar   
     9   10    5 1    
    10    7    6 ar   
    11   19    6 1    
    12    8    7 ar   
    13   20    7 1    
    14    9    8 ar   
    15   21    8 1    
    16   22    9 1    
    17   23   10 1    
    18   24   10 1    
    19   15   11 1    
    20   27   11 1    
    21   28   11 1    
    22   29   11 1    
    23   16   12 1    
    24   30   12 1    
    25   31   12 1    
    26   32   12 1    
    27   16   13 1    
    28   15   14 1    
    29   17   15 1    
    30   25   15 1    
    31   18   16 1    
    32   26   16 1    
    33   33   17 1    
    34   34   17 1    
    35   35   17 1    
    36   36   18 1    
    37   37   18 1    
    38   38   18 1    
@<TRIPOS>SUBSTRUCTURE
     1 IFS308      1 GROUP   
@<TRIPOS>SET

