#    Name: 3aid_ARQ_1_INTS_M
#    Modification time : Mon Apr  7 19:04:30 2014

@<TRIPOS>MOLECULE
3aid_ARQ_1_INTS_M
   76     0     9     0     0
SMALL
NO_CHARGES


@<TRIPOS>ATOM
      1 CA         -1.5265    0.0480   12.0160 C.3       3 GLC5        0.0000 
      2 CA          0.5620    0.2520   12.0360 C.3       9 GLL5        0.0000 
      3 CA         -3.6150   -0.1560   11.9960 C.3       6 GLP5        0.0000 
      4 CA          1.2040   -1.7090   11.9540 C.3       3 GLC5        0.0000 
      5 CA          1.8460   -3.6700   11.8720 C.3       6 GLP5        0.0000 
      6 CA         -1.1690    3.7535   11.5520 C.3       3 GLC5        0.0000 
      7 CA          0.6750    2.6330   11.4100 C.3       9 GLL5        0.0000 
      8 CA         -3.0130    4.8740   11.6940 C.3       6 GLP5        0.0000 
      9 CA          3.2595   -0.3555    8.8845 C.3       3 GLC5        0.0000 
     10 CA          1.8520    1.0060    9.8910 C.3       9 GLL5        0.0000 
     11 CA          4.6670   -1.7170    7.8780 C.3       6 GLP5        0.0000 
     12 O           4.8330    2.4605   13.7960 O.2       1 ALC1        0.0000 
     13 O           4.4970    0.9940   13.1930 O.2       7 ALL1        0.0000 
     14 O           5.1690    3.9270   14.3990 O.2       4 ALP1        0.0000 
     15 CA          8.8935    0.7415   13.7625 C.3       3 GLC5        0.0000 
     16 CA          6.9530    1.1630   13.3460 C.3       9 GLL5        0.0000 
     17 CA         10.8340    0.3200   14.1790 C.3       6 GLP5        0.0000 
     18 CA          5.7290   -0.0080    8.7260 C.3       3 GLC5        0.0000 
     19 CA          6.7910    1.7010    9.5740 C.3       9 GLL5        0.0000 
     20 N           4.3840    1.1690   16.9730 N.am      2 SEC2        0.0000 
     21 N           5.2480    0.6510   15.9800 N.am      8 SEL2        0.0000 
     22 N           3.5200    1.6870   17.9660 N.am      5 SEP2        0.0000 
     23 O           6.5645    0.9065   16.6700 O.2       1 ALC1        0.0000 
     24 O           5.2480    0.6510   15.9800 O.2       7 ALL1        0.0000 
     25 O           7.8810    1.1620   17.3600 O.2       4 ALP1        0.0000 
     26 CA          5.3070   -1.3095   19.0775 C.3       3 GLC5        0.0000 
     27 CA          5.4410   -2.2190   17.2490 C.3       9 GLL5        0.0000 
     28 CA          5.1730   -0.4000   20.9060 C.3       6 GLP5        0.0000 
     29 CA          6.9960   -2.1630   18.7955 C.3       3 GLC5        0.0000 
     30 CA          8.5510   -2.1070   20.3420 C.3       6 GLP5        0.0000 
     31 CA          1.7520   -2.8600   15.8660 C.3       3 GLC5        0.0000 
     32 CA          3.7180   -3.4410   16.0240 C.3       9 GLL5        0.0000 
     33 CA         -0.2140   -2.2790   15.7080 C.3       6 GLP5        0.0000 
     34 N           4.2940   -5.1130   12.5810 N.am      2 SEC2        0.0000 
     35 N           5.0150   -4.2240   13.5230 N.am      8 SEL2        0.0000 
     36 N           3.5730   -6.0020   11.6390 N.am      5 SEP2        0.0000 
     37 CA          8.1010   -8.1605   12.5775 C.3       3 GLC5        0.0000 
     38 CA          8.5210   -6.1010   12.1230 C.3       9 GLL5        0.0000 
     39 CA          7.6810  -10.2200   13.0320 C.3       6 GLP5        0.0000 
     40 CA         10.5510   -4.2990   12.1615 C.3       3 GLC5        0.0000 
     41 CA          9.7810   -4.8390   13.8380 C.3       9 GLL5        0.0000 
     42 CA         11.3210   -3.7590   10.4850 C.3       6 GLP5        0.0000 
     43 CA          1.1398    2.2704   13.4138 C.3       3 GLC5        0.0000 
     44 CA          1.4740    1.3210   11.3540 C.3       9 GLL5        0.0000 
     45 CA          1.4330    2.8310   15.2750 C.3       6 GLP5        0.0000 
     46 CA          0.0780    0.1661    9.5960 C.3       3 GLC5        0.0000 
     47 CA         -1.2790   -0.5640    8.3990 C.3       6 GLP5        0.0000 
     48 CA          8.9790    1.9427   10.9820 C.3       3 GLC5        0.0000 
     49 CA          6.8150    1.0510   10.8260 C.3       9 GLL5        0.0000 
     50 CA         11.0630    2.4480   10.5520 C.3       6 GLP5        0.0000 
     51 CA          7.9495   -0.1094   10.4655 C.3       3 GLC5        0.0000 
     52 CA          9.0560   -1.7880   10.4380 C.3       6 GLP5        0.0000 
     53 CA          8.9610    2.4268   10.0492 C.3       3 GLC5        0.0000 
     54 CA          8.3042    4.3445   12.6683 C.3       3 GLC5        0.0000 
     55 CA          7.0850    3.8880   10.6920 C.3       9 GLL5        0.0000 
     56 CA          9.5090    5.1290   14.0200 C.3       6 GLP5        0.0000 
     57 CA          9.0813    3.0040   10.9343 C.3       3 GLC5        0.0000 
     58 CA          7.1140    3.2320   11.9410 C.3       9 GLL5        0.0000 
     59 CA          2.6433   -7.5370   15.7782 C.3       3 GLC5        0.0000 
     60 CA          4.0550   -5.9400   16.3080 C.3       9 GLL5        0.0000 
     61 CA          1.1780   -8.5510   14.8480 C.3       6 GLP5        0.0000 
     62 CA          4.5228   -7.0825   14.7967 C.3       3 GLC5        0.0000 
     63 CA          4.1620   -7.1060   17.1090 C.3       9 GLL5        0.0000 
     64 CA          4.9370   -7.6420   12.8850 C.3       6 GLP5        0.0000 
     65 CA          2.5940   -4.1173   20.0303 C.3       3 GLC5        0.0000 
     66 CA          3.3860   -4.6320   18.2480 C.3       9 GLL5        0.0000 
     67 CA          1.7440   -3.0230   21.4050 C.3       6 GLP5        0.0000 
     68 CA          1.5555   -5.4093   18.8428 C.3       3 GLC5        0.0000 
     69 CA         -0.3330   -5.6070   19.0300 C.3       6 GLP5        0.0000 
     70 CA          6.4366   -6.6049   12.7553 C.3       3 GLC5        0.0000 
     71 CA          9.3865   -4.9264   11.2311 C.3       3 GLC5        0.0000 
     72 CA          7.3430   -5.4900   12.5820 C.3       9 GLL5        0.0000 
     73 CA          9.9500   -4.0570    9.8880 C.3       6 GLP5        0.0000 
     74 CA         11.2713   -6.4413   14.0235 C.3       3 GLC5        0.0000 
     75 CA          9.7140   -5.7960   12.7960 C.3       9 GLL5        0.0000 
     76 CA         12.7950   -7.5650   14.7300 C.3       6 GLP5        0.0000 
@<TRIPOS>BOND
@<TRIPOS>SUBSTRUCTURE
     1 ALC1       12 GROUP        1 X    ALC  0     ROOT ALC X 1
     2 SEC2       20 GROUP        1 X    SEC  0     **** SEC X 2
     3 GLC5        1 GROUP        1 X    GLC  0     **** GLC X 6
     4 ALP1       14 GROUP        1 Y    ALP  0     ROOT ALP Y 8
     5 SEP2       22 GROUP        1 Y    SEP  0     **** SEP Y 9
     6 GLP5        3 GROUP        1 Y    GLP  0     **** GLP Y 13
     7 ALL1       13 GROUP        1 Z    ALL  0     ROOT ALL Z 15
     8 SEL2       21 GROUP        1 Z    SEL  0     **** SEL Z 16
     9 GLL5        2 GROUP        1 Z    GLL  0     **** GLL Z 20
@<TRIPOS>SET

