#    Name: 3aid_ARQ_1_ligand
#    Modification time : Mon Apr  7 19:04:30 2014

@<TRIPOS>MOLECULE
3aid_ARQ_1_ligand
   75    77     1     0     0
SMALL
NO_CHARGES


@<TRIPOS>ATOM
      1 C1          1.4740    1.3210   11.3540 C.3       1 ARQ401      0.0000 
      2 C2          0.5620    0.2520   12.0360 C.3       1 ARQ401      0.0000 
      3 C3          0.6750    2.6330   11.4100 C.3       1 ARQ401      0.0000 
      4 C4          1.8520    1.0060    9.8910 C.3       1 ARQ401      0.0000 
      5 O4          2.6640    1.5540   12.1080 O.3       1 ARQ401      0.0000 
      6 C30         3.5110    0.5710   12.4000 C.2       1 ARQ401      0.0000 
      7 O3          3.3990   -0.5330   11.9700 O.2       1 ARQ401      0.0000 
      8 N1          4.4970    0.9940   13.1930 N.am      1 ARQ401      0.0000 
      9 C5          5.7160    0.2690   13.5580 C.3       1 ARQ401      0.0000 
     10 C6          6.9530    1.1630   13.3460 C.3       1 ARQ401      0.0000 
     11 C7          6.9750    1.8240   11.9980 C.ar      1 ARQ401      0.0000 
     12 C8          6.8150    1.0510   10.8260 C.ar      1 ARQ401      0.0000 
     13 C9          6.7910    1.7010    9.5740 C.ar      1 ARQ401      0.0000 
     14 C10         6.9270    3.1100    9.5190 C.ar      1 ARQ401      0.0000 
     15 C11         7.1140    3.2320   11.9410 C.ar      1 ARQ401      0.0000 
     16 C12         7.0850    3.8880   10.6920 C.ar      1 ARQ401      0.0000 
     17 C13         5.6420   -0.3190   14.9980 C.3       1 ARQ401      0.0000 
     18 O1          5.2480    0.6510   15.9800 O.3       1 ARQ401      0.0000 
     19 C14         4.6690   -1.5250   15.0080 C.3       1 ARQ401      0.0000 
     20 N2          4.9980   -2.6690   15.9100 N.4       1 ARQ401      0.0000 
     21 C22         5.4410   -2.2190   17.2490 C.3       1 ARQ401      0.0000 
     22 C15         3.7180   -3.4410   16.0240 C.3       1 ARQ401      0.0000 
     23 C16         3.7240   -4.6950   16.8830 C.ar      1 ARQ401      0.0000 
     24 C17         4.0550   -5.9400   16.3080 C.ar      1 ARQ401      0.0000 
     25 C18         4.1620   -7.1060   17.1090 C.ar      1 ARQ401      0.0000 
     26 C19         3.9570   -7.0060   18.5050 C.ar      1 ARQ401      0.0000 
     27 C20         3.3860   -4.6320   18.2480 C.ar      1 ARQ401      0.0000 
     28 C21         3.5020   -5.7910   19.0630 C.ar      1 ARQ401      0.0000 
     29 N3          6.1210   -3.3330   15.2910 N.am      1 ARQ401      0.0000 
     30 C23         6.0670   -4.0330   14.1400 C.2       1 ARQ401      0.0000 
     31 O2          5.0150   -4.2240   13.5230 O.2       1 ARQ401      0.0000 
     32 C27         7.3600   -4.5790   13.6740 C.ar      1 ARQ401      0.0000 
     33 C26         7.3430   -5.4900   12.5820 C.ar      1 ARQ401      0.0000 
     34 C25         8.5210   -6.1010   12.1230 C.ar      1 ARQ401      0.0000 
     35 C24         9.7140   -5.7960   12.7960 C.ar      1 ARQ401      0.0000 
     36 C28         8.5930   -4.2220   14.2790 C.ar      1 ARQ401      0.0000 
     37 C29         9.7810   -4.8390   13.8380 C.ar      1 ARQ401      0.0000 
     38 H           4.4346    1.9746   13.6396 H         1 ARQ401      0.0000 
     39 H           5.8319   -0.5957   12.8708 H         1 ARQ401      0.0000 
     40 H           7.8526    0.5434   13.4730 H         1 ARQ401      0.0000 
     41 H           6.9665    1.9269   14.1369 H         1 ARQ401      0.0000 
     42 H           6.7188    0.0427   10.8850 H         1 ARQ401      0.0000 
     43 H           6.6773    1.1655    8.7177 H         1 ARQ401      0.0000 
     44 H           6.9105    3.5812    8.6015 H         1 ARQ401      0.0000 
     45 H           7.2343    3.7672   12.7994 H         1 ARQ401      0.0000 
     46 H           7.1750    4.8935   10.6330 H         1 ARQ401      0.0000 
     47 H           6.6358   -0.7232   15.2254 H         1 ARQ401      0.0000 
     48 H           4.5795   -1.8920   13.9537 H         1 ARQ401      0.0000 
     49 H           3.6504   -1.1316   15.2570 H         1 ARQ401      0.0000 
     50 H           3.3700   -3.7242   14.9944 H         1 ARQ401      0.0000 
     51 H           2.9132   -2.7581   16.4079 H         1 ARQ401      0.0000 
     52 H           4.2212   -6.0067   15.2974 H         1 ARQ401      0.0000 
     53 H           4.3829   -7.9998   16.6840 H         1 ARQ401      0.0000 
     54 H           4.1375   -7.8095   19.1060 H         1 ARQ401      0.0000 
     55 H           3.0572   -3.7577   18.6582 H         1 ARQ401      0.0000 
     56 H           3.2553   -5.7408   20.0515 H         1 ARQ401      0.0000 
     57 H           7.0432   -3.2407   15.8112 H         1 ARQ401      0.0000 
     58 H           6.4447   -5.7007   12.1238 H         1 ARQ401      0.0000 
     59 H           8.5097   -6.7339   11.3406 H         1 ARQ401      0.0000 
     60 H          10.5883   -6.2903   12.5223 H         1 ARQ401      0.0000 
     61 H           8.6146   -3.5294   15.0209 H         1 ARQ401      0.0000 
     62 H          10.6732   -4.6031   14.2590 H         1 ARQ401      0.0000 
     63 H           0.9952   -0.6491   12.0534 H         1 ARQ401      0.0000 
     64 H           0.3506    0.4939   12.9830 H         1 ARQ401      0.0000 
     65 H          -0.3103    0.1487   11.5581 H         1 ARQ401      0.0000 
     66 H           1.1784    3.3923   10.9975 H         1 ARQ401      0.0000 
     67 H          -0.1951    2.5590   10.9227 H         1 ARQ401      0.0000 
     68 H           0.4626    2.8986   12.3504 H         1 ARQ401      0.0000 
     69 H           2.4363    1.7157    9.4973 H         1 ARQ401      0.0000 
     70 H           2.3484    0.1414    9.8136 H         1 ARQ401      0.0000 
     71 H           1.0442    0.9336    9.3060 H         1 ARQ401      0.0000 
     72 H           5.6582   -2.9905   17.8470 H         1 ARQ401      0.0000 
     73 H           6.2608   -1.6488   17.1967 H         1 ARQ401      0.0000 
     74 H           4.7374   -1.6791   17.7110 H         1 ARQ401      0.0000 
     75 H           6.0923    0.8926   16.4582 H         1 ARQ401      0.0000 
@<TRIPOS>BOND
     1    2    1 1    
     2    3    1 1    
     3    4    1 1    
     4    5    1 1    
     5   63    2 1    
     6   64    2 1    
     7   65    2 1    
     8   66    3 1    
     9   67    3 1    
    10   68    3 1    
    11   69    4 1    
    12   70    4 1    
    13   71    4 1    
    14    6    5 1    
    15    7    6 2    
    16    8    6 am   
    17    9    8 1    
    18   38    8 1    
    19   10    9 1    
    20   17    9 1    
    21   39    9 1    
    22   11   10 1    
    23   40   10 1    
    24   41   10 1    
    25   12   11 ar   
    26   15   11 ar   
    27   13   12 ar   
    28   42   12 1    
    29   14   13 ar   
    30   43   13 1    
    31   16   14 ar   
    32   44   14 1    
    33   16   15 ar   
    34   45   15 1    
    35   46   16 1    
    36   18   17 1    
    37   19   17 1    
    38   47   17 1    
    39   75   18 1    
    40   20   19 1    
    41   48   19 1    
    42   49   19 1    
    43   21   20 1    
    44   22   20 1    
    45   29   20 1    
    46   72   21 1    
    47   73   21 1    
    48   74   21 1    
    49   23   22 1    
    50   50   22 1    
    51   51   22 1    
    52   24   23 ar   
    53   27   23 ar   
    54   25   24 ar   
    55   52   24 1    
    56   26   25 ar   
    57   53   25 1    
    58   28   26 ar   
    59   54   26 1    
    60   28   27 ar   
    61   55   27 1    
    62   56   28 1    
    63   30   29 am   
    64   57   29 1    
    65   31   30 2    
    66   32   30 1    
    67   33   32 ar   
    68   36   32 ar   
    69   34   33 ar   
    70   58   33 1    
    71   35   34 ar   
    72   59   34 1    
    73   37   35 ar   
    74   60   35 1    
    75   37   36 ar   
    76   61   36 1    
    77   62   37 1    
@<TRIPOS>SUBSTRUCTURE
     1 ARQ401      1 GROUP   
@<TRIPOS>SET

