#    Name: 4BAH_1_CAVITY_N1_6.mol2
#    Modification time : Tue Mar 11 19:18:34 2014

@<TRIPOS>MOLECULE
4BAH_1_CAVITY_N1_6.mol2
   96     0     7     0     0
SMALL
NO_CHARGES


@<TRIPOS>ATOM
      1 OG         20.7779  -15.3881   22.2807 O.2       1 SER1        0.0000 
      2 CZ         19.5863  -15.7623   21.4500 C.ar      5 PHE5        0.0000 
      3 CZ         20.4678  -15.8898   20.2430 C.ar      5 PHE5        0.0000 
      4 CZ         18.3947  -16.1366   20.6193 C.ar      5 PHE5        0.0000 
      5 N          15.4402  -16.2559   22.2025 N.2       2 ALA2        0.0000 
      6 O          14.2486  -16.6301   21.3719 O.2       2 ALA2        0.0000 
      7 CA         12.1756  -16.8769   21.7481 C.3       6 GLY6        0.0000 
      8 DU         13.0570  -17.0044   20.5412 H         7 CUB7        0.0000 
      9 CA         10.9840  -17.2512   20.9174 C.3       6 GLY6        0.0000 
     10 DU         11.8654  -17.3786   19.7105 H         7 CUB7        0.0000 
     11 NZ         12.7469  -17.5061   18.5035 N.2       4 LYS4        0.0000 
     12 N          10.6738  -17.7529   18.8798 N.2       2 ALA2        0.0000 
     13 NZ         11.5553  -17.8803   17.6728 N.2       4 LYS4        0.0000 
     14 DU         19.6659  -13.8137   23.1665 H         7 CUB7        0.0000 
     15 OG         20.5473  -13.9411   21.9595 O.2       1 SER1        0.0000 
     16 N          17.5929  -14.0605   23.5428 N.2       2 ALA2        0.0000 
     17 DU         18.4743  -14.1879   22.3358 H         7 CUB7        0.0000 
     18 CZ         19.3558  -14.3154   21.1288 C.ar      5 PHE5        0.0000 
     19 CZ         20.2372  -14.4428   19.9218 C.ar      5 PHE5        0.0000 
     20 N          17.2827  -14.5622   21.5051 N.2       2 ALA2        0.0000 
     21 CZ         18.1642  -14.6896   20.2981 C.ar      5 PHE5        0.0000 
     22 N          15.2097  -14.8089   21.8814 N.2       2 ALA2        0.0000 
     23 CZ         16.0911  -14.9364   20.6744 C.ar      5 PHE5        0.0000 
     24 N          13.1366  -15.0557   22.2577 N.2       2 ALA2        0.0000 
     25 DU         14.0181  -15.1832   21.0507 H         7 CUB7        0.0000 
     26 DU         14.8995  -15.3106   19.8437 H         7 CUB7        0.0000 
     27 N          11.9450  -15.4300   21.4270 N.2       2 ALA2        0.0000 
     28 DU         12.8265  -15.5574   20.2200 H         7 CUB7        0.0000 
     29 NZ         13.7079  -15.6849   19.0130 N.2       4 LYS4        0.0000 
     30 CA         10.7534  -15.8042   20.5963 C.3       6 GLY6        0.0000 
     31 CA         11.6349  -15.9317   19.3893 C.3       6 GLY6        0.0000 
     32 NZ         12.5163  -16.0591   18.1823 N.2       4 LYS4        0.0000 
     33 N          10.4433  -16.3059   18.5586 N.2       2 ALA2        0.0000 
     34 CA         19.4353  -12.3667   22.8453 C.3       6 GLY6        0.0000 
     35 CA         17.3623  -12.6135   23.2216 C.3       6 GLY6        0.0000 
     36 CA         18.2438  -12.7410   22.0146 C.3       6 GLY6        0.0000 
     37 CZ         19.1252  -12.8684   20.8076 C.ar      5 PHE5        0.0000 
     38 CZ         20.0067  -12.9959   19.6007 C.ar      5 PHE5        0.0000 
     39 N          16.1707  -12.9877   22.3909 N.2       2 ALA2        0.0000 
     40 DU         17.0522  -13.1152   21.1839 H         7 CUB7        0.0000 
     41 CZ         17.9336  -13.2427   19.9769 C.ar      5 PHE5        0.0000 
     42 N          14.0977  -13.2345   22.7672 N.2       2 ALA2        0.0000 
     43 N          14.9791  -13.3620   21.5602 N.2       2 ALA2        0.0000 
     44 CZ         15.8606  -13.4894   20.3532 C.ar      5 PHE5        0.0000 
     45 CZ         16.7420  -13.6169   19.1463 C.ar      5 PHE5        0.0000 
     46 N          12.9061  -13.6088   21.9365 N.2       2 ALA2        0.0000 
     47 DU         13.7875  -13.7362   20.7295 H         7 CUB7        0.0000 
     48 DU         14.6690  -13.8637   19.5225 H         7 CUB7        0.0000 
     49 CZ         15.5504  -13.9911   18.3156 C.ar      5 PHE5        0.0000 
     50 CA         11.7145  -13.9830   21.1058 C.3       6 GLY6        0.0000 
     51 O          12.5959  -14.1105   19.8988 O.2       2 ALA2        0.0000 
     52 CA         13.4774  -14.2379   18.6918 C.3       6 GLY6        0.0000 
     53 CA         14.3588  -14.3654   17.4849 C.3       6 GLY6        0.0000 
     54 CA         15.2403  -14.4928   16.2779 C.3       6 GLY6        0.0000 
     55 O          11.4043  -14.4847   19.0681 O.2       2 ALA2        0.0000 
     56 CA         18.0132  -11.2940   21.6934 C.3       6 GLY6        0.0000 
     57 CA         18.8947  -11.4215   20.4865 C.3       6 GLY6        0.0000 
     58 CA         15.9402  -11.5408   22.0697 C.3       6 GLY6        0.0000 
     59 N          16.8216  -11.6682   20.8628 N.2       2 ALA2        0.0000 
     60 N          17.7031  -11.7957   19.6558 N.2       2 ALA2        0.0000 
     61 CZ         18.5845  -11.9232   18.4488 C.ar      5 PHE5        0.0000 
     62 O          13.8671  -11.7876   22.4460 O.2       2 ALA2        0.0000 
     63 O          14.7486  -11.9150   21.2390 O.2       2 ALA2        0.0000 
     64 DU         15.6300  -12.0425   20.0321 H         7 CUB7        0.0000 
     65 CZ         16.5115  -12.1699   18.8251 C.ar      5 PHE5        0.0000 
     66 N          11.7941  -12.0343   22.8223 N.2       2 ALA2        0.0000 
     67 N          12.6755  -12.1618   21.6153 N.2       2 ALA2        0.0000 
     68 O          13.5570  -12.2893   20.4083 O.2       2 ALA2        0.0000 
     69 CA         14.4384  -12.4167   19.2014 C.3       6 GLY6        0.0000 
     70 CZ         15.3199  -12.5442   17.9944 C.ar      5 PHE5        0.0000 
     71 CZ         16.2013  -12.6716   16.7874 C.ar      5 PHE5        0.0000 
     72 CA         11.4839  -12.5360   20.7846 C.3       6 GLY6        0.0000 
     73 CA         15.8912  -13.1733   14.7497 C.3       6 GLY6        0.0000 
     74 N          12.7551  -10.2131   23.3318 N.2       2 ALA2        0.0000 
     75 CA         13.6366  -10.3406   22.1248 C.3       6 GLY6        0.0000 
     76 OG         14.5180  -10.4681   20.9179 O.2       1 SER1        0.0000 
     77 OG         15.3995  -10.5955   19.7109 O.2       1 SER1        0.0000 
     78 OG         16.2809  -10.7230   18.5039 O.2       1 SER1        0.0000 
     79 N          17.1624  -10.8504   17.2969 N.2       2 ALA2        0.0000 
     80 N          11.5635  -10.5874   22.5011 N.2       2 ALA2        0.0000 
     81 CA         12.4450  -10.7148   21.2942 C.3       6 GLY6        0.0000 
     82 O          13.3264  -10.8423   20.0872 O.2       2 ALA2        0.0000 
     83 OG         14.2079  -10.9698   18.8802 O.2       1 SER1        0.0000 
     84 OG         15.0893  -11.0972   17.6732 O.2       1 SER1        0.0000 
     85 OG         15.9708  -11.2247   16.4662 O.2       1 SER1        0.0000 
     86 OD1        16.8522  -11.3521   15.2593 O.3       3 ASP3        0.0000 
     87 CA         14.7792  -11.5989   15.6355 C.3       6 GLY6        0.0000 
     88 CA         15.6606  -11.7264   14.4286 C.3       6 GLY6        0.0000 
     89 CA         12.5246   -8.7662   23.0107 C.3       6 GLY6        0.0000 
     90 CA         13.4060   -8.8936   21.8037 C.3       6 GLY6        0.0000 
     91 OG         14.2875   -9.0211   20.5967 O.2       1 SER1        0.0000 
     92 N          12.2144   -9.2679   20.9730 N.2       2 ALA2        0.0000 
     93 N          13.0959   -9.3953   19.7660 N.2       2 ALA2        0.0000 
     94 OG         15.7402   -9.7777   16.1451 O.2       1 SER1        0.0000 
     95 OD1        16.6217   -9.9052   14.9381 O.3       3 ASP3        0.0000 
     96 O          14.5486  -10.1520   15.3144 O.2       2 ALA2        0.0000 
@<TRIPOS>BOND
@<TRIPOS>SUBSTRUCTURE
     1 SER1        1 GROUP   
     2 ALA2        5 GROUP   
     3 ASP3       86 GROUP   
     4 LYS4       11 GROUP   
     5 PHE5        2 GROUP   
     6 GLY6        7 GROUP   
     7 CUB7        8 GROUP   
@<TRIPOS>SET

