#    Name: 4bah_MEL_1_INTS_M
#    Modification time : Tue Mar 25 07:10:06 2014

@<TRIPOS>MOLECULE
4bah_MEL_1_INTS_M
   74     0     9     0     0
SMALL
NO_CHARGES


@<TRIPOS>ATOM
      1 CA         18.0655  -13.2885   25.8620 C.3       3 GLC5        0.0000 
      2 CA         18.8170  -14.4230   24.3390 C.3       9 GLL5        0.0000 
      3 CA         17.3140  -12.1540   27.3850 C.3       6 GLP5        0.0000 
      4 CA         19.7770  -15.4710   28.2895 C.3       3 GLC5        0.0000 
      5 CA         19.5190  -15.4480   26.5040 C.3       9 GLL5        0.0000 
      6 CA         20.0350  -15.4940   30.0750 C.3       6 GLP5        0.0000 
      7 CA         21.0040  -15.5825   28.0760 C.3       3 GLC5        0.0000 
      8 CA         20.8090  -14.6100   26.5010 C.3       9 GLL5        0.0000 
      9 CA         21.1990  -16.5550   29.6510 C.3       6 GLP5        0.0000 
     10 CA         22.2220  -12.2820   26.6910 C.3       3 GLC5        0.0000 
     11 CA         20.6120  -13.2860   25.7470 C.3       9 GLL5        0.0000 
     12 CA         23.8320  -11.2780   27.6350 C.3       6 GLP5        0.0000 
     13 CA         20.4560  -11.6925   23.4720 C.3       3 GLC5        0.0000 
     14 CA         20.1140  -13.5790   24.3180 C.3       9 GLL5        0.0000 
     15 CA         20.7980   -9.8060   22.6260 C.3       6 GLP5        0.0000 
     16 CA         18.8255  -12.0165   24.4250 C.3       3 GLC5        0.0000 
     17 CA         17.5370  -10.4540   24.5320 C.3       6 GLP5        0.0000 
     18 N          15.8980  -12.2480   23.7570 N.am      2 SEC2        0.0000 
     19 N          16.8930  -12.8090   22.5600 N.am      8 SEL2        0.0000 
     20 N          14.9030  -11.6870   24.9540 N.am      5 SEP2        0.0000 
     21 CA         18.0195  -11.0385   22.5130 C.3       3 GLC5        0.0000 
     22 CA         18.5020  -11.6230   20.4940 C.3       9 GLL5        0.0000 
     23 O          16.6465   -9.6140   21.0265 O.2       1 ALC1        0.0000 
     24 O          16.1760  -10.8150   20.0040 O.2       7 ALL1        0.0000 
     25 O          17.1170   -8.4130   22.0490 O.2       4 ALP1        0.0000 
     26 CA         15.1825   -9.0420   18.6020 C.3       3 GLC5        0.0000 
     27 CA         14.8250  -11.0780   19.4730 C.3       9 GLL5        0.0000 
     28 CA         15.5400   -7.0060   17.7310 C.3       6 GLP5        0.0000 
     29 CA         10.8245  -13.0550   21.7510 C.3       3 GLC5        0.0000 
     30 CA         12.5810  -12.0810   22.3580 C.3       9 GLL5        0.0000 
     31 CA          9.0680  -14.0290   21.1440 C.3       6 GLP5        0.0000 
     32 CA         10.9030   -8.3850   22.1095 C.3       3 GLC5        0.0000 
     33 CA         12.4940   -9.6610   22.0740 C.3       9 GLL5        0.0000 
     34 CA          9.3120   -7.1090   22.1450 C.3       6 GLP5        0.0000 
     35 O           9.6000   -9.4615   25.0445 O.2       1 ALC1        0.0000 
     36 O          10.8890   -9.5960   24.4700 O.2       7 ALL1        0.0000 
     37 O           8.3110   -9.3270   25.6190 O.2       4 ALP1        0.0000 
     38 O           9.2690  -11.6960   24.9780 O.2       1 ALC1        0.0000 
     39 O          10.3990  -11.8540   24.2650 O.2       7 ALL1        0.0000 
     40 O           8.1390  -11.5380   25.6910 O.2       4 ALP1        0.0000 
     41 O          10.5660  -13.2730   24.0925 O.2       1 ALC1        0.0000 
     42 O          10.7330  -14.6920   23.9200 O.2       4 ALP1        0.0000 
     43 CA         21.2190  -13.0705   19.0130 C.3       3 GLC5        0.0000 
     44 CA         19.6700  -12.0180   19.5700 C.3       9 GLL5        0.0000 
     45 CA         22.7680  -14.1230   18.4560 C.3       6 GLP5        0.0000 
     46 CA         21.6275  -13.4345   20.1570 C.3       3 GLC5        0.0000 
     47 CA         19.9900  -13.0980   20.6110 C.3       9 GLL5        0.0000 
     48 CA         23.2650  -13.7710   19.7030 C.3       6 GLP5        0.0000 
     49 N          13.3120  -16.7320   23.7545 N.am      2 SEC2        0.0000 
     50 N          14.5300  -16.5920   22.9810 N.am      8 SEL2        0.0000 
     51 N          12.0940  -16.8720   24.5280 N.am      5 SEP2        0.0000 
     52 CA         17.4525  -16.0053   26.7765 C.3       3 GLC5        0.0000 
     53 CA         19.0530  -15.7530   25.0720 C.3       9 GLL5        0.0000 
     54 CA         15.6190  -16.4100   27.7650 C.3       6 GLP5        0.0000 
     55 CA         18.8510  -13.1557   26.7549 C.3       3 GLC5        0.0000 
     56 CA         19.2840  -10.4078   19.0070 C.3       3 GLC5        0.0000 
     57 CA         19.4820   -8.9950   17.9820 C.3       6 GLP5        0.0000 
     58 CA         13.0083  -11.4365   18.4645 C.3       3 GLC5        0.0000 
     59 CA         11.6820  -11.8270   16.8860 C.3       6 GLP5        0.0000 
     60 CA         14.8825  -10.1233   22.4735 C.3       3 GLC5        0.0000 
     61 CA         13.8440  -11.0140   20.6130 C.3       9 GLL5        0.0000 
     62 CA         16.1480   -9.8550   24.1250 C.3       6 GLP5        0.0000 
     63 CA         10.8305  -11.1865   21.1945 C.3       3 GLC5        0.0000 
     64 CA         12.0990  -10.8210   22.7640 C.3       9 GLL5        0.0000 
     65 CA          9.3210  -10.9220   19.8280 C.3       6 GLP5        0.0000 
     66 CA         13.1505  -11.9460   24.1665 C.3       3 GLC5        0.0000 
     67 CA         13.9610  -12.4410   25.7720 C.3       6 GLP5        0.0000 
     68 CA         14.2222  -10.0480   23.2720 C.3       3 GLC5        0.0000 
     69 CA         11.1315  -10.3185   20.6902 C.3       3 GLC5        0.0000 
     70 CA         12.7275   -7.8210   21.3967 C.3       3 GLC5        0.0000 
     71 CA         12.5130   -5.9270   21.2410 C.3       6 GLP5        0.0000 
     72 CA         18.9220  -13.6016   18.9102 C.3       3 GLC5        0.0000 
     73 CA         18.3060  -14.7440   17.4990 C.3       6 GLP5        0.0000 
     74 CA         20.1680  -11.1326   21.4738 C.3       3 GLC5        0.0000 
@<TRIPOS>BOND
@<TRIPOS>SUBSTRUCTURE
     1 ALC1       23 GROUP        1 X    ALC  0     ROOT ALC X 1
     2 SEC2       18 GROUP        1 X    SEC  0     **** SEC X 2
     3 GLC5        1 GROUP        1 X    GLC  0     **** GLC X 6
     4 ALP1       25 GROUP        1 Y    ALP  0     ROOT ALP Y 8
     5 SEP2       20 GROUP        1 Y    SEP  0     **** SEP Y 9
     6 GLP5        3 GROUP        1 Y    GLP  0     **** GLP Y 13
     7 ALL1       24 GROUP        1 Z    ALL  0     ROOT ALL Z 15
     8 SEL2       19 GROUP        1 Z    SEL  0     **** SEL Z 16
     9 GLL5        2 GROUP        1 Z    GLL  0     **** GLL Z 20
@<TRIPOS>SET

