#    Name: 4bah_MEL_1_ligand
#    Modification time : Tue Mar 25 07:10:06 2014

@<TRIPOS>MOLECULE
4bah_MEL_1_ligand
   61    63     1     0     0
SMALL
NO_CHARGES


@<TRIPOS>ATOM
      1 C1         18.8170  -14.4230   24.3390 C.3       1 MEL1291     0.0000 
      2 C2         19.0530  -15.7530   25.0720 C.3       1 MEL1291     0.0000 
      3 C3         19.5190  -15.4480   26.5040 C.3       1 MEL1291     0.0000 
      4 C4         20.8090  -14.6100   26.5010 C.3       1 MEL1291     0.0000 
      5 C5         20.6120  -13.2860   25.7470 C.3       1 MEL1291     0.0000 
      6 C6         20.1140  -13.5790   24.3180 C.3       1 MEL1291     0.0000 
      7 N7         17.0340  -15.4950   22.9870 N.4       1 MEL1291     0.0000 
      8 C8         18.2790  -14.6860   22.9180 C.3       1 MEL1291     0.0000 
      9 C9         17.9420  -13.3730   22.2630 C.2       1 MEL1291     0.0000 
     10 O0         16.8930  -12.8090   22.5600 O.2       1 MEL1291     0.0000 
     11 N11        18.7350  -12.7990   21.3370 N.am      1 MEL1291     0.0000 
     12 C12        18.5020  -11.6230   20.4940 C.3       1 MEL1291     0.0000 
     13 C13        17.1070  -11.7900   19.9020 C.2       1 MEL1291     0.0000 
     14 O14        16.7900  -12.8720   19.4230 O.2       1 MEL1291     0.0000 
     15 N15        16.1760  -10.8150   20.0040 N.am      1 MEL1291     0.0000 
     16 C16        14.8250  -11.0780   19.4730 C.3       1 MEL1291     0.0000 
     17 C17        13.8440  -11.0140   20.6130 C.ar      1 MEL1291     0.0000 
     18 C18        13.4640  -12.1670   21.2840 C.ar      1 MEL1291     0.0000 
     19 C19        12.5810  -12.0810   22.3580 C.ar      1 MEL1291     0.0000 
     20 C20        12.0990  -10.8210   22.7640 C.ar      1 MEL1291     0.0000 
     21 C21        12.4940   -9.6610   22.0740 C.ar      1 MEL1291     0.0000 
     22 C22        13.3900   -9.7690   21.0310 C.ar      1 MEL1291     0.0000 
     23 C23        11.1190  -10.7320   23.8780 C.ar      1 MEL1291     0.0000 
     24 N24        10.8890   -9.5960   24.4700 N.pl3     1 MEL1291     0.0000 
     25 N25        10.3990  -11.8540   24.2650 N.pl3     1 MEL1291     0.0000 
     26 C26        19.6700  -12.0180   19.5700 C.3       1 MEL1291     0.0000 
     27 C27        19.9900  -13.0980   20.6110 C.3       1 MEL1291     0.0000 
     28 C28        16.3970  -15.8260   21.6860 C.3       1 MEL1291     0.0000 
     29 C29        14.9890  -16.3550   21.8810 C.2       1 MEL1291     0.0000 
     30 O30        14.5300  -16.5920   22.9810 O.co2     1 MEL1291     0.0000 
     31 O31        14.2300  -16.5970   20.8100 O.co2     1 MEL1291     0.0000 
     32 H          18.0614  -13.8666   24.8900 H         1 MEL1291     0.0000 
     33 H          19.8169  -16.3136   24.5588 H         1 MEL1291     0.0000 
     34 H          18.1317  -16.3107   25.1066 H         1 MEL1291     0.0000 
     35 H          19.7033  -16.3840   27.0271 H         1 MEL1291     0.0000 
     36 H          18.7380  -14.8980   27.0248 H         1 MEL1291     0.0000 
     37 H          21.6030  -15.1799   26.0216 H         1 MEL1291     0.0000 
     38 H          21.0977  -14.3968   27.5287 H         1 MEL1291     0.0000 
     39 H          21.5539  -12.7594   25.6941 H         1 MEL1291     0.0000 
     40 H          19.8774  -12.6849   26.2630 H         1 MEL1291     0.0000 
     41 H          19.9160  -12.6397   23.8086 H         1 MEL1291     0.0000 
     42 H          20.8820  -14.1249   23.7765 H         1 MEL1291     0.0000 
     43 H          19.0216  -15.1900   22.3516 H         1 MEL1291     0.0000 
     44 H          18.6907  -10.7822   20.9820 H         1 MEL1291     0.0000 
     45 H          16.3446   -9.9110   20.4228 H         1 MEL1291     0.0000 
     46 H          14.7815  -12.0650   19.0190 H         1 MEL1291     0.0000 
     47 H          14.5579  -10.3312   18.7292 H         1 MEL1291     0.0000 
     48 H          13.8301  -13.0804   20.9927 H         1 MEL1291     0.0000 
     49 H          12.2803  -12.9231   22.8533 H         1 MEL1291     0.0000 
     50 H          12.1141   -8.7533   22.3519 H         1 MEL1291     0.0000 
     51 H          13.7303   -8.9170   20.5520 H         1 MEL1291     0.0000 
     52 H          10.1876   -9.6053   25.1827 H         1 MEL1291     0.0000 
     53 H          11.4348   -8.8185   24.1575 H         1 MEL1291     0.0000 
     54 H           9.7320  -11.7177   24.9974 H         1 MEL1291     0.0000 
     55 H          10.6096  -12.7016   23.7779 H         1 MEL1291     0.0000 
     56 H          20.3707  -11.3060   19.5924 H         1 MEL1291     0.0000 
     57 H          19.3116  -12.4421   18.7393 H         1 MEL1291     0.0000 
     58 H          19.9544  -14.0153   20.1657 H         1 MEL1291     0.0000 
     59 H          20.8093  -12.8143   21.1489 H         1 MEL1291     0.0000 
     60 H          16.9896  -16.5838   21.1595 H         1 MEL1291     0.0000 
     61 H          16.3543  -14.9332   21.0506 H         1 MEL1291     0.0000 
@<TRIPOS>BOND
     1    2    1 1    
     2    6    1 1    
     3    8    1 1    
     4   32    1 1    
     5    3    2 1    
     6   33    2 1    
     7   34    2 1    
     8    4    3 1    
     9   35    3 1    
    10   36    3 1    
    11    5    4 1    
    12   37    4 1    
    13   38    4 1    
    14    6    5 1    
    15   39    5 1    
    16   40    5 1    
    17   41    6 1    
    18   42    6 1    
    19    8    7 1    
    20   28    7 1    
    21    9    8 1    
    22   43    8 1    
    23   10    9 2    
    24   11    9 am   
    25   12   11 1    
    26   27   11 1    
    27   13   12 1    
    28   26   12 1    
    29   44   12 1    
    30   14   13 2    
    31   15   13 am   
    32   16   15 1    
    33   45   15 1    
    34   17   16 1    
    35   46   16 1    
    36   47   16 1    
    37   18   17 ar   
    38   22   17 ar   
    39   19   18 ar   
    40   48   18 1    
    41   20   19 ar   
    42   49   19 1    
    43   21   20 ar   
    44   23   20 1    
    45   22   21 ar   
    46   50   21 1    
    47   51   22 1    
    48   24   23 ar   
    49   25   23 ar   
    50   52   24 1    
    51   53   24 1    
    52   54   25 1    
    53   55   25 1    
    54   27   26 1    
    55   56   26 1    
    56   57   26 1    
    57   58   27 1    
    58   59   27 1    
    59   29   28 1    
    60   60   28 1    
    61   61   28 1    
    62   30   29 ar   
    63   31   29 ar   
@<TRIPOS>SUBSTRUCTURE
     1 MEL1291     1 GROUP   
@<TRIPOS>SET

