#    Name: 4bkz_1WS_1_INTS_M
#    Modification time : Tue Mar 25 07:51:34 2014

@<TRIPOS>MOLECULE
4bkz_1WS_1_INTS_M
   53     0    12     0     0
SMALL
NO_CHARGES


@<TRIPOS>ATOM
      1 CA         12.5650   10.2530   12.5435 C.3       4 GLC5        0.0000 
      2 CA         12.4820   11.6910   10.8910 C.3      12 GLL5        0.0000 
      3 CA         12.6480    8.8150   14.1960 C.3       8 GLP5        0.0000 
      4 OD1        11.5010   11.6410   13.6480 O.co2     3 ASC3        0.0000 
      5 OD1        10.7060   12.1880   12.4620 O.co2    11 ASL3        0.0000 
      6 OD1        12.2960   11.0940   14.8340 O.co2     7 ASP3        0.0000 
      7 O          10.1945   10.8885   12.3105 O.2       1 ALC1        0.0000 
      8 O          10.7060   12.1880   12.4620 O.2       9 ALL1        0.0000 
      9 O           9.6830    9.5890   12.1590 O.2       5 ALP1        0.0000 
     10 O          11.5010   11.6410   13.6480 O.2       1 ALC1        0.0000 
     11 O          12.2960   11.0940   14.8340 O.2       5 ALP1        0.0000 
     12 CA         17.0565   10.6750    7.1275 C.3       4 GLC5        0.0000 
     13 CA         15.8620    8.9880    7.0530 C.3      12 GLL5        0.0000 
     14 CA         18.2510   12.3620    7.2020 C.3       8 GLP5        0.0000 
     15 CA         14.2050    8.5615    8.2260 C.3       4 GLC5        0.0000 
     16 CA         12.5480    8.1350    9.3990 C.3       8 GLP5        0.0000 
     17 CA         18.6030    7.0830    5.6605 C.3       4 GLC5        0.0000 
     18 CA         17.0370    6.7500    7.1000 C.3      12 GLL5        0.0000 
     19 CA         20.1690    7.4160    4.2210 C.3       8 GLP5        0.0000 
     20 CA         16.8870    4.9500    7.5650 C.3       4 GLC5        0.0000 
     21 CA         16.7370    3.1500    8.0300 C.3       8 GLP5        0.0000 
     22 CA         15.3845    6.0465    8.2895 C.3       4 GLC5        0.0000 
     23 CA         13.7320    5.3430    9.4790 C.3       8 GLP5        0.0000 
     24 CA         15.1840    5.6100    3.2695 C.3       4 GLC5        0.0000 
     25 CA         16.0620    7.5420    3.5550 C.3      12 GLL5        0.0000 
     26 CA         14.3060    3.6780    2.9840 C.3       8 GLP5        0.0000 
     27 N          16.8810    4.9105    3.3600 N.am      2 SEC2        0.0000 
     28 N          17.1650    5.9540    4.6240 N.am     10 SEL2        0.0000 
     29 N          16.5970    3.8670    2.0960 N.am      6 SEP2        0.0000 
     30 CA         18.1980    6.6040   -1.4555 C.3       4 GLC5        0.0000 
     31 CA         17.0740    7.2510   -1.6670 C.3      12 GLL5        0.0000 
     32 CA         19.3220    5.9570   -1.2440 C.3       8 GLP5        0.0000 
     33 CA         12.8280   10.0783   10.0017 C.3       4 GLC5        0.0000 
     34 CA         13.7340   12.3520   10.3180 C.3      12 GLL5        0.0000 
     35 CA         18.2377    7.0987    8.7183 C.3       4 GLC5        0.0000 
     36 CA         19.5260    6.7660    9.9910 C.3       8 GLP5        0.0000 
     37 CA         15.0042    6.9576    6.5170 C.3       4 GLC5        0.0000 
     38 CA         13.3090    6.2650    5.7730 C.3       8 GLP5        0.0000 
     39 CA         17.3980    9.8078    5.2107 C.3       4 GLC5        0.0000 
     40 CA         16.1270    7.8310    4.9820 C.3      12 GLL5        0.0000 
     41 CA         18.9590   11.2660    5.0760 C.3       8 GLP5        0.0000 
     42 CA         18.1318    7.5512    4.2447 C.3       4 GLC5        0.0000 
     43 CA         14.6293    7.1054    5.1116 C.3       4 GLC5        0.0000 
     44 CA         15.4010   10.4055    1.7460 C.3       4 GLC5        0.0000 
     45 CA         15.3840    8.4080    1.3440 C.3      12 GLL5        0.0000 
     46 CA         15.9430   12.0400    2.4440 C.3       8 GLP5        0.0000 
     47 CA         15.6453    6.2445   -1.3115 C.3       4 GLC5        0.0000 
     48 CA         14.6290    4.9510   -1.7000 C.3       8 GLP5        0.0000 
     49 CA         14.6425    6.9305   -1.3767 C.3       4 GLC5        0.0000 
     50 CA         15.1210    8.5930   -1.4640 C.3      12 GLL5        0.0000 
     51 CA         12.2982    8.3457    0.2833 C.3       4 GLC5        0.0000 
     52 CA         14.1910    9.2270   -0.6430 C.3      12 GLL5        0.0000 
     53 CA         10.3340    7.5110    0.5120 C.3       8 GLP5        0.0000 
@<TRIPOS>BOND
@<TRIPOS>SUBSTRUCTURE
     1 ALC1        7 GROUP        1 X    ALC  0     ROOT ALC X 1
     2 SEC2       27 GROUP        1 X    SEC  0     **** SEC X 2
     3 ASC3        4 GROUP        1 X    ASC  0     **** ASC X 3
     4 GLC5        1 GROUP        1 X    GLC  0     **** GLC X 6
     5 ALP1        9 GROUP        1 Y    ALP  0     ROOT ALP Y 8
     6 SEP2       29 GROUP        1 Y    SEP  0     **** SEP Y 9
     7 ASP3        6 GROUP        1 Y    ASP  0     **** ASP Y 10
     8 GLP5        3 GROUP        1 Y    GLP  0     **** GLP Y 13
     9 ALL1        8 GROUP        1 Z    ALL  0     ROOT ALL Z 15
    10 SEL2       28 GROUP        1 Z    SEL  0     **** SEL Z 16
    11 ASL3        5 GROUP        1 Z    ASL  0     **** ASL Z 17
    12 GLL5        2 GROUP        1 Z    GLL  0     **** GLL Z 20
@<TRIPOS>SET

