#    Name: 4bkz_1WS_1_ligand
#    Modification time : Tue Mar 25 07:51:34 2014

@<TRIPOS>MOLECULE
4bkz_1WS_1_ligand
   48    51     1     0     0
SMALL
NO_CHARGES


@<TRIPOS>ATOM
      1 O23        15.7590   10.4640    9.7010 O.2       1 1WS1335     0.0000 
      2 C21        14.9500   10.7490    8.8330 C.2       1 1WS1335     0.0000 
      3 N22        13.9870   11.6310    9.0740 N.am      1 1WS1335     0.0000 
      4 C24        13.7340   12.3520   10.3180 C.3       1 1WS1335     0.0000 
      5 C25        12.4820   11.6910   10.8910 C.3       1 1WS1335     0.0000 
      6 C26        11.4550   12.7210   11.3390 C.3       1 1WS1335     0.0000 
      7 N27        10.7060   12.1880   12.4620 N.4       1 1WS1335     0.0000 
      8 C8         15.0080   10.1410    7.4660 C.2       1 1WS1335     0.0000 
      9 C7         15.8620    8.9880    7.0530 C.2       1 1WS1335     0.0000 
     10 C4         16.8620    8.1130    7.7910 C.3       1 1WS1335     0.0000 
     11 C3         17.0370    6.7500    7.1000 C.3       1 1WS1335     0.0000 
     12 N9         14.3010   10.5260    6.3840 N.2       1 1WS1335     0.0000 
     13 N10        14.6120    9.7270    5.2500 N.pl3     1 1WS1335     0.0000 
     14 C6         15.5470    8.8680    5.7090 C.2       1 1WS1335     0.0000 
     15 C1         16.1270    7.8310    4.9820 C.2       1 1WS1335     0.0000 
     16 C11        16.0620    7.5420    3.5550 C.2       1 1WS1335     0.0000 
     17 N12        16.7290    6.3880    3.3350 N.pl3     1 1WS1335     0.0000 
     18 N5         17.1650    5.9540    4.6240 N.2       1 1WS1335     0.0000 
     19 C2         16.7920    6.8110    5.6180 C.2       1 1WS1335     0.0000 
     20 N13        15.4420    8.3880    2.7000 N.pl3     1 1WS1335     0.0000 
     21 C14        15.3840    8.4080    1.3440 C.ar      1 1WS1335     0.0000 
     22 C19        16.3190    7.7780    0.5190 C.ar      1 1WS1335     0.0000 
     23 C18        16.1790    7.8720   -0.8770 C.ar      1 1WS1335     0.0000 
     24 F20        17.0740    7.2510   -1.6670 F         1 1WS1335     0.0000 
     25 C17        15.1210    8.5930   -1.4640 C.ar      1 1WS1335     0.0000 
     26 C16        14.1910    9.2270   -0.6430 C.ar      1 1WS1335     0.0000 
     27 C15        14.3340    9.1340    0.7520 C.ar      1 1WS1335     0.0000 
     28 H          13.2838   11.8770    8.2893 H         1 1WS1335     0.0000 
     29 H          13.5244   13.3861   10.1365 H         1 1WS1335     0.0000 
     30 H          14.5378   12.2274   11.0141 H         1 1WS1335     0.0000 
     31 H          12.7650   11.0683   11.7440 H         1 1WS1335     0.0000 
     32 H          12.0376   11.0456   10.1284 H         1 1WS1335     0.0000 
     33 H          10.7985   12.9405   10.4955 H         1 1WS1335     0.0000 
     34 H          11.9833   13.6349   11.6154 H         1 1WS1335     0.0000 
     35 H          16.5178    7.9477    8.8135 H         1 1WS1335     0.0000 
     36 H          17.8300    8.6160    7.8278 H         1 1WS1335     0.0000 
     37 H          16.3427    6.0345    7.5628 H         1 1WS1335     0.0000 
     38 H          18.0576    6.3910    7.2939 H         1 1WS1335     0.0000 
     39 H          14.2361    9.8117    4.4122 H         1 1WS1335     0.0000 
     40 H          16.8940    5.9366    2.5384 H         1 1WS1335     0.0000 
     41 H          14.8776    9.2172    3.1966 H         1 1WS1335     0.0000 
     42 H          17.0963    7.2545    0.9209 H         1 1WS1335     0.0000 
     43 H          15.0426    8.6462   -2.4793 H         1 1WS1335     0.0000 
     44 H          13.4150    9.7528   -1.0434 H         1 1WS1335     0.0000 
     45 H          13.6473    9.6132    1.3623 H         1 1WS1335     0.0000 
     46 H          11.3008   11.9731   13.2366 H         1 1WS1335     0.0000 
     47 H          10.0187   12.8356   12.7910 H         1 1WS1335     0.0000 
     48 H          10.2235   11.3461   12.2205 H         1 1WS1335     0.0000 
@<TRIPOS>BOND
     1    2    1 2    
     2    3    2 am   
     3    8    2 1    
     4    4    3 1    
     5   28    3 1    
     6    5    4 1    
     7   29    4 1    
     8   30    4 1    
     9    6    5 1    
    10   31    5 1    
    11   32    5 1    
    12    7    6 1    
    13   33    6 1    
    14   34    6 1    
    15   46    7 1    
    16   47    7 1    
    17   48    7 1    
    18    9    8 1    
    19   12    8 2    
    20   10    9 1    
    21   14    9 2    
    22   11   10 1    
    23   35   10 1    
    24   36   10 1    
    25   19   11 1    
    26   37   11 1    
    27   38   11 1    
    28   13   12 1    
    29   14   13 1    
    30   39   13 1    
    31   15   14 1    
    32   16   15 2    
    33   19   15 1    
    34   17   16 1    
    35   20   16 1    
    36   18   17 1    
    37   40   17 1    
    38   19   18 2    
    39   21   20 1    
    40   41   20 1    
    41   22   21 ar   
    42   27   21 ar   
    43   23   22 ar   
    44   42   22 1    
    45   24   23 1    
    46   25   23 ar   
    47   26   25 ar   
    48   43   25 1    
    49   27   26 ar   
    50   44   26 1    
    51   45   27 1    
@<TRIPOS>SUBSTRUCTURE
     1 1WS1335     1 GROUP   
@<TRIPOS>SET

