#    Name: 4eso_NAP_4_INTS_M
#    Modification time : Mon Mar 24 18:37:18 2014

@<TRIPOS>MOLECULE
4eso_NAP_4_INTS_M
   91     0     9     0     0
SMALL
NO_CHARGES


@<TRIPOS>ATOM
      1 CA        -23.5655   29.3835   17.4860 C.3       3 GLC5        0.0000 
      2 CA        -21.5220   30.1050   16.8880 C.3       9 GLL5        0.0000 
      3 CA        -25.6090   28.6620   18.0840 C.3       6 GLP5        0.0000 
      4 CA        -22.4780   32.9900   16.7760 C.3       3 GLC5        0.0000 
      5 CA        -21.7880   31.4820   17.4630 C.3       9 GLL5        0.0000 
      6 CA        -23.1680   34.4980   16.0890 C.3       6 GLP5        0.0000 
      7 CA        -23.8150   29.2755   18.6235 C.3       3 GLC5        0.0000 
      8 CA        -22.0210   29.8890   19.1630 C.3       9 GLL5        0.0000 
      9 CA        -22.2070   27.9810   19.0230 C.3       3 GLC5        0.0000 
     10 CA        -22.3930   26.0730   18.8830 C.3       6 GLP5        0.0000 
     11 CA        -22.5090   26.9405   25.1920 C.3       3 GLC5        0.0000 
     12 CA        -21.5270   27.3540   23.3900 C.3       9 GLL5        0.0000 
     13 CA        -23.4910   26.5270   26.9940 C.3       6 GLP5        0.0000 
     14 O         -20.7395   26.3365   25.5035 O.2       1 ALC1        0.0000 
     15 O         -20.6650   26.8340   24.3060 O.2       7 ALL1        0.0000 
     16 O         -20.8140   25.8390   26.7010 O.2       4 ALP1        0.0000 
     17 N         -23.0590   26.0910   24.3370 N.am      2 SEC2        0.0000 
     18 N         -22.8750   27.2330   23.5220 N.am      8 SEL2        0.0000 
     19 N         -23.2430   24.9490   25.1520 N.am      5 SEP2        0.0000 
     20 CA        -24.8120   29.3825   22.4535 C.3       3 GLC5        0.0000 
     21 CA        -23.7370   27.7480   22.6210 C.3       9 GLL5        0.0000 
     22 CA        -25.8870   31.0170   22.2860 C.3       6 GLP5        0.0000 
     23 CA        -22.6725   28.7850   24.1190 C.3       3 GLC5        0.0000 
     24 CA        -21.6080   29.8220   25.6170 C.3       6 GLP5        0.0000 
     25 CA        -23.3335   25.7395   22.8120 C.3       3 GLC5        0.0000 
     26 CA        -22.9300   23.7310   23.0030 C.3       6 GLP5        0.0000 
     27 CA        -23.0650   26.9105   20.7520 C.3       3 GLC5        0.0000 
     28 CA        -21.9650   29.8600   23.0750 C.3       3 GLC5        0.0000 
     29 CA        -22.0330   28.6200   21.2780 C.3       9 GLL5        0.0000 
     30 CA        -21.8970   31.1000   24.8720 C.3       6 GLP5        0.0000 
     31 N         -21.9305   32.0755   10.8485 N.am      2 SEC2        0.0000 
     32 N         -20.2740   31.8470   11.1510 N.am      8 SEL2        0.0000 
     33 N         -23.5870   32.3040   10.5460 N.am      5 SEP2        0.0000 
     34 N         -18.9455   24.1285   13.6730 N.am      2 SEC2        0.0000 
     35 N         -19.5130   25.4700   13.8710 N.am      8 SEL2        0.0000 
     36 N         -18.3780   22.7870   13.4750 N.am      5 SEP2        0.0000 
     37 O         -20.7100   25.7960   14.2695 O.2       1 ALC1        0.0000 
     38 O         -19.5130   25.4700   13.8710 O.2       7 ALL1        0.0000 
     39 O         -21.9070   26.1220   14.6680 O.2       4 ALP1        0.0000 
     40 CA        -15.8860   25.5740   12.4165 C.3       3 GLC5        0.0000 
     41 CA        -17.8360   26.5180   12.5230 C.3       9 GLL5        0.0000 
     42 CA        -13.9360   24.6300   12.3100 C.3       6 GLP5        0.0000 
     43 CA        -17.4000   24.4490   13.0470 C.3       3 GLC5        0.0000 
     44 CA        -16.9640   22.3800   13.5710 C.3       6 GLP5        0.0000 
     45 N         -16.0700   25.2065   12.2825 N.am      2 SEC2        0.0000 
     46 N         -17.1180   25.3750   12.9840 N.am      8 SEL2        0.0000 
     47 N         -15.0220   25.0380   11.5810 N.am      5 SEP2        0.0000 
     48 N         -17.7480   24.0810   13.2295 N.am      2 SEC2        0.0000 
     49 CA        -19.9980   25.6430   10.5975 C.3       3 GLC5        0.0000 
     50 CA        -18.3500   26.3120   11.1060 C.3       9 GLL5        0.0000 
     51 CA        -21.6460   24.9740   10.0890 C.3       6 GLP5        0.0000 
     52 CA        -18.9010   26.0480    8.9480 C.3       3 GLC5        0.0000 
     53 CA        -19.4520   25.7840    6.7900 C.3       6 GLP5        0.0000 
     54 N         -15.8390   31.0930    6.4060 N.am      2 SEC2        0.0000 
     55 N         -15.4870   30.3900    7.7920 N.am      8 SEL2        0.0000 
     56 N         -16.1910   31.7960    5.0200 N.am      5 SEP2        0.0000 
     57 N         -24.1040   34.1205   20.0255 N.am      2 SEC2        0.0000 
     58 N         -23.0310   34.2910   20.9420 N.am      8 SEL2        0.0000 
     59 N         -25.1770   33.9500   19.1090 N.am      5 SEP2        0.0000 
     60 N         -22.7445   35.5560   20.4870 N.am      2 SEC2        0.0000 
     61 N         -22.4580   36.8210   20.0320 N.am      5 SEP2        0.0000 
     62 N         -21.5635   35.3350   20.0735 N.am      2 SEC2        0.0000 
     63 N         -20.6690   33.8490   20.1150 N.am      8 SEL2        0.0000 
     64 N         -22.8260   31.9775   22.8700 N.am      2 SEC2        0.0000 
     65 N         -21.6300   32.4450   21.9870 N.am      8 SEL2        0.0000 
     66 N         -24.0220   31.5100   23.7530 N.am      5 SEP2        0.0000 
     67 N         -22.2435   33.2015   23.2630 N.am      2 SEC2        0.0000 
     68 N         -22.8570   33.9580   24.5390 N.am      5 SEP2        0.0000 
     69 CA        -21.4042   28.1175   17.0058 C.3       3 GLC5        0.0000 
     70 CA        -21.9890   26.1820   17.4080 C.3       6 GLP5        0.0000 
     71 CA        -21.4418   28.7720   24.2080 C.3       3 GLC5        0.0000 
     72 CA        -21.0240   28.0900   22.2080 C.3       9 GLL5        0.0000 
     73 CA        -21.3468   25.7390   22.8090 C.3       3 GLC5        0.0000 
     74 CA        -21.4180   23.7560   22.8190 C.3       6 GLP5        0.0000 
     75 CA        -21.9608   27.2140   20.3130 C.3       3 GLC5        0.0000 
     76 CA        -20.6923   28.3912   10.4908 C.3       3 GLC5        0.0000 
     77 CA        -20.6650   28.6120   12.6140 C.3       9 GLL5        0.0000 
     78 CA        -20.9900   28.8740    8.5040 C.3       6 GLP5        0.0000 
     79 CA        -20.6258   25.9705   11.4660 C.3       3 GLC5        0.0000 
     80 CA        -20.1240   27.2050   12.3410 C.3       9 GLL5        0.0000 
     81 CA        -18.3462   26.2112   14.8905 C.3       3 GLC5        0.0000 
     82 CA        -19.0870   26.7290   13.3450 C.3       9 GLL5        0.0000 
     83 CA        -18.2310   25.7990   16.8470 C.3       6 GLP5        0.0000 
     84 CA        -17.7434   28.9320    8.6840 C.3       3 GLC5        0.0000 
     85 CA        -17.0870   28.0400    9.9540 C.3       9 GLL5        0.0000 
     86 CA        -19.3690   29.9580    8.5710 C.3       6 GLP5        0.0000 
     87 CA        -15.7920   24.4415    8.8090 C.3       3 GLC5        0.0000 
     88 CA        -15.9220   26.2130    8.2720 C.3       9 GLL5        0.0000 
     89 CA        -15.2070   22.8540    8.8530 C.3       6 GLP5        0.0000 
     90 CA        -17.8736   26.0740    7.7595 C.3       3 GLC5        0.0000 
     91 CA        -16.8320   25.8450    9.2580 C.3       9 GLL5        0.0000 
@<TRIPOS>BOND
@<TRIPOS>SUBSTRUCTURE
     1 ALC1       14 GROUP        1 X    ALC  0     ROOT ALC X 1
     2 SEC2       17 GROUP        1 X    SEC  0     **** SEC X 2
     3 GLC5        1 GROUP        1 X    GLC  0     **** GLC X 6
     4 ALP1       16 GROUP        1 Y    ALP  0     ROOT ALP Y 8
     5 SEP2       19 GROUP        1 Y    SEP  0     **** SEP Y 9
     6 GLP5        3 GROUP        1 Y    GLP  0     **** GLP Y 13
     7 ALL1       15 GROUP        1 Z    ALL  0     ROOT ALL Z 15
     8 SEL2       18 GROUP        1 Z    SEL  0     **** SEL Z 16
     9 GLL5        2 GROUP        1 Z    GLL  0     **** GLL Z 20
@<TRIPOS>SET

