#    Name: 4eso_NAP_4_ligand
#    Modification time : Mon Mar 24 18:37:18 2014

@<TRIPOS>MOLECULE
4eso_NAP_4_ligand
   73    77     1     0     0
SMALL
NO_CHARGES


@<TRIPOS>ATOM
      1 PA        -18.4530   31.3000   14.7560 P.3       1 NAP700      0.0000 
      2 O1A       -17.8780   29.9140   14.6000 O.co2     1 NAP700      0.0000 
      3 O2A       -17.6150   32.3860   15.3940 O.co2     1 NAP700      0.0000 
      4 O5B       -19.8150   31.1890   15.6030 O.3       1 NAP700      0.0000 
      5 C5B       -20.1170   30.0010   16.3190 C.3       1 NAP700      0.0000 
      6 C4B       -21.5220   30.1050   16.8880 C.3       1 NAP700      0.0000 
      7 O4B       -21.6540   29.1900   17.9720 O.3       1 NAP700      0.0000 
      8 C3B       -21.7880   31.4820   17.4630 C.3       1 NAP700      0.0000 
      9 O3B       -23.1570   31.7640   17.1930 O.3       1 NAP700      0.0000 
     10 C2B       -21.6200   31.3400   18.9600 C.3       1 NAP700      0.0000 
     11 O2B       -22.4820   32.2310   19.6750 O.3       1 NAP700      0.0000 
     12 C1B       -22.0210   29.8890   19.1630 C.3       1 NAP700      0.0000 
     13 N9A       -21.3580   29.2310   20.3110 N.pl3     1 NAP700      0.0000 
     14 C8A       -20.0360   29.1200   20.5540 C.2       1 NAP700      0.0000 
     15 N7A       -19.8210   28.4350   21.7060 N.2       1 NAP700      0.0000 
     16 C5A       -21.0240   28.0900   22.2080 C.ar      1 NAP700      0.0000 
     17 C6A       -21.5270   27.3540   23.3900 C.ar      1 NAP700      0.0000 
     18 N6A       -20.6650   26.8340   24.3060 N.pl3     1 NAP700      0.0000 
     19 N1A       -22.8750   27.2330   23.5220 N.ar      1 NAP700      0.0000 
     20 C2A       -23.7370   27.7480   22.6210 C.ar      1 NAP700      0.0000 
     21 N3A       -23.3510   28.4240   21.5240 N.ar      1 NAP700      0.0000 
     22 C4A       -22.0330   28.6200   21.2780 C.ar      1 NAP700      0.0000 
     23 O3        -18.9380   31.8320   13.3080 O.3       1 NAP700      0.0000 
     24 PN        -20.1880   31.1880   12.5080 P.3       1 NAP700      0.0000 
     25 O1N       -20.2740   31.8470   11.1510 O.co2     1 NAP700      0.0000 
     26 O2N       -21.4220   31.1980   13.3820 O.co2     1 NAP700      0.0000 
     27 O5D       -19.7280   29.6520   12.3120 O.3       1 NAP700      0.0000 
     28 C5D       -20.6650   28.6120   12.6140 C.3       1 NAP700      0.0000 
     29 C4D       -20.1240   27.2050   12.3410 C.3       1 NAP700      0.0000 
     30 O4D       -19.5380   27.1020   11.0390 O.3       1 NAP700      0.0000 
     31 C3D       -19.0870   26.7290   13.3450 C.3       1 NAP700      0.0000 
     32 O3D       -19.5130   25.4700   13.8710 O.3       1 NAP700      0.0000 
     33 C2D       -17.8360   26.5180   12.5230 C.3       1 NAP700      0.0000 
     34 O2D       -17.1180   25.3750   12.9840 O.3       1 NAP700      0.0000 
     35 C1D       -18.3500   26.3120   11.1060 C.3       1 NAP700      0.0000 
     36 N1N       -17.3920   26.7450   10.0790 N.pl3     1 NAP700      0.0000 
     37 C2N       -17.0870   28.0400    9.9540 C.ar      1 NAP700      0.0000 
     38 C3N       -16.1940   28.4780    8.9780 C.ar      1 NAP700      0.0000 
     39 C7N       -15.8760   29.9430    8.8620 C.2       1 NAP700      0.0000 
     40 O7N       -15.4870   30.3900    7.7920 O.2       1 NAP700      0.0000 
     41 N7N       -16.0360   30.7180    9.9370 N.am      1 NAP700      0.0000 
     42 C4N       -15.5950   27.5530    8.1280 C.ar      1 NAP700      0.0000 
     43 C5N       -15.9220   26.2130    8.2720 C.ar      1 NAP700      0.0000 
     44 C6N       -16.8320   25.8450    9.2580 C.ar      1 NAP700      0.0000 
     45 P2B       -21.9140   33.2850   20.7640 P.3       1 NAP700      0.0000 
     46 O1X       -23.0310   34.2910   20.9420 O.co2     1 NAP700      0.0000 
     47 O2X       -20.6690   33.8490   20.1150 O.co2     1 NAP700      0.0000 
     48 O3X       -21.6300   32.4450   21.9870 O.co2     1 NAP700      0.0000 
     49 H         -19.4267   29.8405   17.1546 H         1 NAP700      0.0000 
     50 H         -20.0794   29.1150   15.6756 H         1 NAP700      0.0000 
     51 H         -22.2349   29.9046   16.1225 H         1 NAP700      0.0000 
     52 H         -21.1256   32.1670   17.0779 H         1 NAP700      0.0000 
     53 H         -20.5965   31.4379   19.1938 H         1 NAP700      0.0000 
     54 H         -23.0963   29.8498   19.2872 H         1 NAP700      0.0000 
     55 H         -19.3285   29.4804   19.9839 H         1 NAP700      0.0000 
     56 H         -19.6919   26.9758   24.1245 H         1 NAP700      0.0000 
     57 H         -21.0807   26.3560   25.0797 H         1 NAP700      0.0000 
     58 H         -24.7820   27.6107   22.7893 H         1 NAP700      0.0000 
     59 H         -21.5993   28.7273   12.0239 H         1 NAP700      0.0000 
     60 H         -20.9751   28.6459   13.6803 H         1 NAP700      0.0000 
     61 H         -20.9756   26.5021   12.4043 H         1 NAP700      0.0000 
     62 H         -18.9273   27.4617   14.0611 H         1 NAP700      0.0000 
     63 H         -17.2637   27.4139   12.5442 H         1 NAP700      0.0000 
     64 H         -18.5935   25.2708   10.9928 H         1 NAP700      0.0000 
     65 H         -17.5116   28.7553   10.5860 H         1 NAP700      0.0000 
     66 H         -16.3378   30.2565   10.7712 H         1 NAP700      0.0000 
     67 H         -15.8396   31.6905    9.8115 H         1 NAP700      0.0000 
     68 H         -14.9318   27.8556    7.4170 H         1 NAP700      0.0000 
     69 H         -15.5029   25.5065    7.6654 H         1 NAP700      0.0000 
     70 H         -17.0734   24.8264    9.3443 H         1 NAP700      0.0000 
     71 H         -23.4278   32.4252   17.8926 H         1 NAP700      0.0000 
     72 H         -20.1369   25.6995   14.6181 H         1 NAP700      0.0000 
     73 H         -16.4689   25.7310   13.6563 H         1 NAP700      0.0000 
@<TRIPOS>BOND
     1    2    1 ar   
     2    3    1 ar   
     3    4    1 1    
     4   23    1 1    
     5    5    4 1    
     6    6    5 1    
     7   49    5 1    
     8   50    5 1    
     9    7    6 1    
    10    8    6 1    
    11   51    6 1    
    12   12    7 1    
    13    9    8 1    
    14   10    8 1    
    15   52    8 1    
    16   71    9 1    
    17   11   10 1    
    18   12   10 1    
    19   53   10 1    
    20   45   11 1    
    21   13   12 1    
    22   54   12 1    
    23   14   13 1    
    24   22   13 1    
    25   15   14 2    
    26   55   14 1    
    27   16   15 1    
    28   17   16 ar   
    29   22   16 ar   
    30   18   17 1    
    31   19   17 ar   
    32   56   18 1    
    33   57   18 1    
    34   20   19 ar   
    35   21   20 ar   
    36   58   20 1    
    37   22   21 ar   
    38   24   23 1    
    39   25   24 ar   
    40   26   24 ar   
    41   27   24 1    
    42   28   27 1    
    43   29   28 1    
    44   59   28 1    
    45   60   28 1    
    46   30   29 1    
    47   31   29 1    
    48   61   29 1    
    49   35   30 1    
    50   32   31 1    
    51   33   31 1    
    52   62   31 1    
    53   72   32 1    
    54   34   33 1    
    55   35   33 1    
    56   63   33 1    
    57   73   34 1    
    58   36   35 1    
    59   64   35 1    
    60   37   36 ar   
    61   44   36 ar   
    62   38   37 ar   
    63   65   37 1    
    64   39   38 1    
    65   42   38 ar   
    66   40   39 2    
    67   41   39 am   
    68   66   41 1    
    69   67   41 1    
    70   43   42 ar   
    71   68   42 1    
    72   44   43 ar   
    73   69   43 1    
    74   70   44 1    
    75   46   45 ar   
    76   47   45 ar   
    77   48   45 ar   
@<TRIPOS>SUBSTRUCTURE
     1 NAP700      1 GROUP   
@<TRIPOS>SET

