#    Name: 1T90_4_CAVITY_N1_6.mol2
#    Modification time : Tue Mar 11 10:23:59 2014

@<TRIPOS>MOLECULE
1T90_4_CAVITY_N1_6.mol2
   94     0     6     0     0
SMALL
NO_CHARGES


@<TRIPOS>ATOM
      1 O         107.0816   27.0741   14.6060 O.2       2 ALA2        0.0000 
      2 N         106.9655   25.4940   18.8178 N.2       2 ALA2        0.0000 
      3 CA        105.5444   26.5088   15.9541 C.3       5 GLY6        0.0000 
      4 CA        105.5057   25.9821   17.3581 C.3       5 GLY6        0.0000 
      5 CA        105.4670   25.4554   18.7620 C.3       5 GLY6        0.0000 
      6 OG        106.6358   38.3057   18.8073 O.2       1 SER1        0.0000 
      7 CZ        108.4686   29.9206   15.7121 C.ar      4 PHE5        0.0000 
      8 CA        108.4299   29.3939   17.1161 C.3       5 GLY6        0.0000 
      9 N         106.9702   29.8820   15.6563 N.2       2 ALA2        0.0000 
     10 N         106.9314   29.3553   17.0603 N.2       2 ALA2        0.0000 
     11 N         106.8927   28.8286   18.4642 N.2       2 ALA2        0.0000 
     12 CA        105.4717   29.8434   15.6005 C.3       5 GLY6        0.0000 
     13 O         105.4330   29.3167   17.0045 O.2       2 ALA2        0.0000 
     14 O         111.2086   39.4750   16.1668 O.2       2 ALA2        0.0000 
     15 O         109.7102   39.4363   16.1110 O.2       2 ALA2        0.0000 
     16 O         109.6714   38.9096   17.5150 O.2       2 ALA2        0.0000 
     17 O         109.6327   38.3829   18.9189 O.2       2 ALA2        0.0000 
     18 O         109.5940   37.8562   20.3229 O.2       2 ALA2        0.0000 
     19 CA        109.5553   37.3295   21.7268 C.3       5 GLY6        0.0000 
     20 O         108.2117   39.3977   16.0552 O.2       2 ALA2        0.0000 
     21 DU        108.1730   38.8710   17.4592 H         6 CUB7        0.0000 
     22 DU        108.1343   38.3443   18.8631 H         6 CUB7        0.0000 
     23 CZ        111.2984   34.2097   17.3992 C.ar      4 PHE5        0.0000 
     24 NZ        111.2596   33.6830   18.8032 N.2       3 LYS4        0.0000 
     25 CZ        109.8386   34.6978   15.9395 C.ar      4 PHE5        0.0000 
     26 CZ        109.7999   34.1711   17.3434 C.ar      4 PHE5        0.0000 
     27 NZ        109.7612   33.6444   18.7474 N.2       3 LYS4        0.0000 
     28 CZ        108.3402   34.6592   15.8837 C.ar      4 PHE5        0.0000 
     29 CA        108.3014   34.1325   17.2876 C.3       5 GLY6        0.0000 
     30 CA        108.2627   33.6058   18.6916 C.3       5 GLY6        0.0000 
     31 CZ        106.8804   35.1473   14.4239 C.ar      4 PHE5        0.0000 
     32 DU        106.8417   34.6206   15.8279 H         6 CUB7        0.0000 
     33 O         106.8030   34.0939   17.2318 O.2       2 ALA2        0.0000 
     34 CZ        105.3820   35.1087   14.3681 C.ar      4 PHE5        0.0000 
     35 CA        105.3432   34.5820   15.7720 C.3       5 GLY6        0.0000 
     36 O         105.3045   34.0553   17.1760 O.2       2 ALA2        0.0000 
     37 N         112.6079   36.0028   21.3133 N.2       2 ALA2        0.0000 
     38 O         111.1482   36.4909   19.8535 O.2       2 ALA2        0.0000 
     39 DU        111.1095   35.9642   21.2575 H         6 CUB7        0.0000 
     40 DU        111.0707   35.4375   22.6614 H         6 CUB7        0.0000 
     41 O         109.7659   38.0324   15.5858 O.2       2 ALA2        0.0000 
     42 O         109.7272   37.5057   16.9898 O.2       2 ALA2        0.0000 
     43 O         109.6884   36.9790   18.3938 O.2       2 ALA2        0.0000 
     44 CA        109.6497   36.4523   19.7977 C.3       5 GLY6        0.0000 
     45 CA        109.6110   35.9256   21.2017 C.3       5 GLY6        0.0000 
     46 CA        109.5723   35.3989   22.6056 C.3       5 GLY6        0.0000 
     47 CA        109.5336   34.8722   24.0096 C.3       5 GLY6        0.0000 
     48 O         108.2674   37.9938   15.5300 O.2       2 ALA2        0.0000 
     49 DU        108.2287   37.4671   16.9340 H         6 CUB7        0.0000 
     50 CA        108.1900   36.9404   18.3379 C.3       5 GLY6        0.0000 
     51 O         106.7302   37.4285   16.8782 O.2       2 ALA2        0.0000 
     52 OG        106.6915   36.9018   18.2821 O.2       1 SER1        0.0000 
     53 CZ        109.8726   30.8365   17.6970 C.ar      4 PHE5        0.0000 
     54 CZ        108.4129   31.3246   16.2373 C.ar      4 PHE5        0.0000 
     55 CZ        108.3742   30.7979   17.6412 C.ar      4 PHE5        0.0000 
     56 N         106.9532   31.8127   14.7775 N.2       2 ALA2        0.0000 
     57 CA        106.9144   31.2860   16.1815 C.3       5 GLY6        0.0000 
     58 N         106.8757   30.7593   17.5854 N.2       2 ALA2        0.0000 
     59 CA        105.4160   31.2473   16.1257 C.3       5 GLY6        0.0000 
     60 O         107.0259   28.4780   15.1311 O.2       2 ALA2        0.0000 
     61 CA        106.9872   27.9513   16.5351 C.3       5 GLY6        0.0000 
     62 CA        106.9484   27.4246   17.9391 C.3       5 GLY6        0.0000 
     63 CA        105.5274   28.4394   15.0753 C.3       5 GLY6        0.0000 
     64 CA        105.4887   27.9127   16.4793 C.3       5 GLY6        0.0000 
     65 N         105.4500   27.3860   17.8832 N.2       2 ALA2        0.0000 
     66 CZ        109.8556   32.7671   16.8183 C.ar      4 PHE5        0.0000 
     67 NZ        109.8169   32.2404   18.2222 N.2       3 LYS4        0.0000 
     68 CZ        108.3959   33.2552   15.3585 C.ar      4 PHE5        0.0000 
     69 CZ        108.3572   32.7285   16.7624 C.ar      4 PHE5        0.0000 
     70 CA        108.3184   32.2018   18.1664 C.3       5 GLY6        0.0000 
     71 CZ        106.9361   33.7433   13.8987 C.ar      4 PHE5        0.0000 
     72 CA        106.8974   33.2166   15.3027 C.3       5 GLY6        0.0000 
     73 O         106.8587   32.6899   16.7066 O.2       2 ALA2        0.0000 
     74 DU        109.6544   40.8403   16.6362 H         6 CUB7        0.0000 
     75 N         112.7024   35.1255   19.3842 N.2       2 ALA2        0.0000 
     76 O         111.2814   36.1403   16.5204 O.2       2 ALA2        0.0000 
     77 O         111.2426   35.6136   17.9244 O.2       2 ALA2        0.0000 
     78 NZ        111.2039   35.0869   19.3284 N.2       3 LYS4        0.0000 
     79 NZ        111.1652   34.5602   20.7323 N.2       3 LYS4        0.0000 
     80 NZ        111.1265   34.0335   22.1363 N.2       3 LYS4        0.0000 
     81 CZ        111.0877   33.5068   23.5402 C.ar      4 PHE5        0.0000 
     82 CZ        109.8216   36.6284   15.0607 C.ar      4 PHE5        0.0000 
     83 O         109.7829   36.1017   16.4646 O.2       2 ALA2        0.0000 
     84 O         109.7442   35.5750   17.8686 O.2       2 ALA2        0.0000 
     85 CA        109.7055   35.0483   19.2725 C.3       5 GLY6        0.0000 
     86 CA        109.6667   34.5216   20.6765 C.3       5 GLY6        0.0000 
     87 NZ        109.6280   33.9949   22.0805 N.2       3 LYS4        0.0000 
     88 CA        109.5893   33.4682   23.4844 C.3       5 GLY6        0.0000 
     89 CZ        108.3232   36.5898   15.0049 C.ar      4 PHE5        0.0000 
     90 DU        108.2844   36.0631   16.4088 H         6 CUB7        0.0000 
     91 CA        108.2457   35.5364   17.8128 C.3       5 GLY6        0.0000 
     92 O         106.8247   36.5512   14.9491 O.2       2 ALA2        0.0000 
     93 O         106.7860   36.0245   16.3530 O.2       2 ALA2        0.0000 
     94 CA        106.7472   35.4978   17.7570 C.3       5 GLY6        0.0000 
@<TRIPOS>BOND
@<TRIPOS>SUBSTRUCTURE
     1 SER1        6 GROUP   
     2 ALA2        1 GROUP   
     3 LYS4       24 GROUP   
     4 PHE5        7 GROUP   
     5 GLY6        3 GROUP   
     6 CUB7       21 GROUP   
@<TRIPOS>SET

