#    Name: 1t90_NAD_4_INTS_M
#    Modification time : Tue Mar 25 04:31:13 2014

@<TRIPOS>MOLECULE
1t90_NAD_4_INTS_M
  100     0     9     0     0
SMALL
NO_CHARGES


@<TRIPOS>ATOM
      1 N         104.4850   34.2680   19.0840 N.am      2 SEC2        0.0000 
      2 N         103.8910   35.5530   18.5510 N.am      8 SEL2        0.0000 
      3 N         105.0790   32.9830   19.6170 N.am      5 SEP2        0.0000 
      4 N         104.7505   35.5765   19.6790 N.am      2 SEC2        0.0000 
      5 N         105.6100   35.6000   20.8070 N.am      5 SEP2        0.0000 
      6 CA        102.6965   33.6135   14.5260 C.3       3 GLC5        0.0000 
      7 CA        102.2810   34.7930   16.0290 C.3       9 GLL5        0.0000 
      8 CA        103.1120   32.4340   13.0230 C.3       6 GLP5        0.0000 
      9 CA        101.5820   34.0520   17.8680 C.3       3 GLC5        0.0000 
     10 CA        100.8830   33.3110   19.7070 C.3       6 GLP5        0.0000 
     11 CA        102.9810   33.2040   17.1035 C.3       3 GLC5        0.0000 
     12 CA        103.6810   31.6150   18.1780 C.3       6 GLP5        0.0000 
     13 CA        100.1895   34.3660   17.5690 C.3       3 GLC5        0.0000 
     14 CA        100.7960   35.1730   15.8670 C.3       9 GLL5        0.0000 
     15 CA         99.5830   33.5590   19.2710 C.3       6 GLP5        0.0000 
     16 N          98.3590   36.4635   13.3780 N.am      2 SEC2        0.0000 
     17 N          99.4770   35.5990   13.8580 N.am      8 SEL2        0.0000 
     18 N          97.2410   37.3280   12.8980 N.am      5 SEP2        0.0000 
     19 O          99.9535   34.4545   13.3175 O.2       1 ALC1        0.0000 
     20 O          99.4770   35.5990   13.8580 O.2       7 ALL1        0.0000 
     21 O         100.4300   33.3100   12.7770 O.2       4 ALP1        0.0000 
     22 N          98.4070   37.8110   13.6845 N.am      2 SEC2        0.0000 
     23 N          99.5730   38.2940   14.4710 N.am      8 SEL2        0.0000 
     24 O          99.9010   38.7970   13.3940 O.2       1 ALC1        0.0000 
     25 O          99.5730   38.2940   14.4710 O.2       7 ALL1        0.0000 
     26 O         100.2290   39.3000   12.3170 O.2       4 ALP1        0.0000 
     27 CA         98.6575   35.5065   16.4740 C.3       3 GLC5        0.0000 
     28 CA         99.9290   37.2430   16.6560 C.3       9 GLL5        0.0000 
     29 CA         97.3860   33.7700   16.2920 C.3       6 GLP5        0.0000 
     30 CA        100.2785   36.8930   18.7890 C.3       3 GLC5        0.0000 
     31 CA        100.6280   36.5430   20.9220 C.3       6 GLP5        0.0000 
     32 CA         98.0540   41.1720   18.9240 C.3       3 GLC5        0.0000 
     33 CA         97.8230   39.5410   19.8790 C.3       9 GLL5        0.0000 
     34 CA         98.2850   42.8030   17.9690 C.3       6 GLP5        0.0000 
     35 CA         96.3225   38.4385   19.7085 C.3       3 GLC5        0.0000 
     36 CA         94.8220   37.3360   19.5380 C.3       6 GLP5        0.0000 
     37 CA         99.2255   38.0420   20.4005 C.3       3 GLC5        0.0000 
     38 N         104.8410   34.3350   12.7275 N.am      2 SEC2        0.0000 
     39 N         104.9900   35.3050   14.0240 N.am      8 SEL2        0.0000 
     40 N         104.6920   33.3650   11.4310 N.am      5 SEP2        0.0000 
     41 N         105.5860   36.8880   13.6840 N.am      2 SEC2        0.0000 
     42 N         106.1820   38.4710   13.3440 N.am      5 SEP2        0.0000 
     43 CA        105.8995   32.2910   14.7260 C.3       3 GLC5        0.0000 
     44 CA        107.7450   32.9210   15.5230 C.3       9 GLL5        0.0000 
     45 CA        104.0540   31.6610   13.9290 C.3       6 GLP5        0.0000 
     46 CA        108.3880   34.0230   13.9330 C.3       3 GLC5        0.0000 
     47 CA        109.0310   35.1250   12.3430 C.3       6 GLP5        0.0000 
     48 CA        105.5860   31.9875   17.5265 C.3       3 GLC5        0.0000 
     49 CA        107.4910   32.3600   16.8750 C.3       9 GLL5        0.0000 
     50 O         110.0350   31.9840   19.7305 O.2       1 ALC1        0.0000 
     51 O         108.8100   32.2030   18.9860 O.2       7 ALL1        0.0000 
     52 O         111.2600   31.7650   20.4750 O.2       4 ALP1        0.0000 
     53 CA        108.8525   29.8665   19.6140 C.3       3 GLC5        0.0000 
     54 CA        108.6420   30.2700   17.4700 C.3       9 GLL5        0.0000 
     55 CA        109.0630   29.4630   21.7580 C.3       6 GLP5        0.0000 
     56 CA        108.9355   28.1590   17.1680 C.3       3 GLC5        0.0000 
     57 CA        109.2290   26.0480   16.8660 C.3       6 GLP5        0.0000 
     58 O         110.6090   29.7745   18.8950 O.2       1 ALC1        0.0000 
     59 O         109.3580   29.5670   18.4500 O.2       7 ALL1        0.0000 
     60 O         111.8600   29.9820   19.3400 O.2       4 ALP1        0.0000 
     61 CA        105.3820   30.8420   17.8520 C.3       3 GLC5        0.0000 
     62 CA        107.0830   30.0690   17.5260 C.3       9 GLL5        0.0000 
     63 CA        105.8025   28.1470   19.9090 C.3       3 GLC5        0.0000 
     64 CA        106.2540   27.6320   17.7750 C.3       9 GLL5        0.0000 
     65 CA        105.3510   28.6620   22.0430 C.3       6 GLP5        0.0000 
     66 CA        104.2080   25.9070   18.5570 C.3       3 GLC5        0.0000 
     67 CA        105.8690   26.4810   17.2040 C.3       9 GLL5        0.0000 
     68 CA        102.5470   25.3330   19.9100 C.3       6 GLP5        0.0000 
     69 O         106.6885   26.3180   20.1260 O.2       1 ALC1        0.0000 
     70 O         106.1860   25.1260   19.2430 O.2       7 ALL1        0.0000 
     71 O         107.1910   27.5100   21.0090 O.2       4 ALP1        0.0000 
     72 CA        107.8980   27.3825   16.1810 C.3       3 GLC5        0.0000 
     73 CA        106.5670   28.7170   15.4960 C.3       9 GLL5        0.0000 
     74 CA         99.0545   34.6983   15.7615 C.3       3 GLC5        0.0000 
     75 CA         98.2705   36.9946   14.8957 C.3       3 GLC5        0.0000 
     76 CA        100.6500   36.0800   14.5950 C.3       9 GLL5        0.0000 
     77 CA         96.3110   36.9820   14.0150 C.3       6 GLP5        0.0000 
     78 CA         99.1333   41.1621   18.5854 C.3       3 GLC5        0.0000 
     79 CA        100.5570   39.7530   19.2880 C.3       9 GLL5        0.0000 
     80 CA        100.3047   38.0321   20.0619 C.3       3 GLC5        0.0000 
     81 CA         99.9750   40.5620   20.3830 C.3       9 GLL5        0.0000 
     82 CA        109.1870   31.9117   15.3325 C.3       3 GLC5        0.0000 
     83 CA        110.7560   31.1830   14.4660 C.3       6 GLP5        0.0000 
     84 CA        107.1123   32.6600   18.9385 C.3       3 GLC5        0.0000 
     85 CA        108.7720   31.8000   17.6010 C.3       9 GLL5        0.0000 
     86 CA        106.0930   33.2400   20.6390 C.3       6 GLP5        0.0000 
     87 CA        110.0710   30.8360   16.5457 C.3       3 GLC5        0.0000 
     88 CA        111.4350   30.6370   15.5560 C.3       6 GLP5        0.0000 
     89 CA        104.3733   27.3087   16.7203 C.3       3 GLC5        0.0000 
     90 CA        102.6850   27.5610   15.9510 C.3       6 GLP5        0.0000 
     91 CA        107.6453   26.5523   17.1777 C.3       3 GLC5        0.0000 
     92 CA        104.5510   26.5932   13.8313 C.3       3 GLC5        0.0000 
     93 CA        105.7770   26.3260   15.6840 C.3       9 GLL5        0.0000 
     94 CA        103.1230   26.2690   12.3910 C.3       6 GLP5        0.0000 
     95 CA        107.2270   25.8533   15.5392 C.3       3 GLC5        0.0000 
     96 CA        108.4750   24.7890   15.8070 C.3       6 GLP5        0.0000 
     97 CA        105.0470   29.1770   14.3708 C.3       3 GLC5        0.0000 
     98 CA        106.1810   27.5090   14.8590 C.3       9 GLL5        0.0000 
     99 CA        103.7200   30.2410   13.5640 C.3       6 GLP5        0.0000 
    100 CA        104.4790   27.6891   15.6674 C.3       3 GLC5        0.0000 
@<TRIPOS>BOND
@<TRIPOS>SUBSTRUCTURE
     1 ALC1       19 GROUP        1 X    ALC  0     ROOT ALC X 1
     2 SEC2        1 GROUP        1 X    SEC  0     **** SEC X 2
     3 GLC5        6 GROUP        1 X    GLC  0     **** GLC X 6
     4 ALP1       21 GROUP        1 Y    ALP  0     ROOT ALP Y 8
     5 SEP2        3 GROUP        1 Y    SEP  0     **** SEP Y 9
     6 GLP5        8 GROUP        1 Y    GLP  0     **** GLP Y 13
     7 ALL1       20 GROUP        1 Z    ALL  0     ROOT ALL Z 15
     8 SEL2        2 GROUP        1 Z    SEL  0     **** SEL Z 16
     9 GLL5        7 GROUP        1 Z    GLL  0     **** GLL Z 20
@<TRIPOS>SET

