#    Name: 1t90_NAD_4_ligand
#    Modification time : Tue Mar 25 04:31:13 2014

@<TRIPOS>MOLECULE
1t90_NAD_4_ligand
   70    74     1     0     0
SMALL
NO_CHARGES


@<TRIPOS>ATOM
      1 PA        104.2790   36.0720   17.2170 P.3       1 NAD4490     0.0000 
      2 O1A       103.8910   35.5530   18.5510 O.co2     1 NAD4490     0.0000 
      3 O2A       104.9270   37.3930   16.9500 O.co2     1 NAD4490     0.0000 
      4 O5B       103.0270   36.0540   16.2230 O.3       1 NAD4490     0.0000 
      5 C5B       102.2810   34.7930   16.0290 C.3       1 NAD4490     0.0000 
      6 C4B       100.7960   35.1730   15.8670 C.3       1 NAD4490     0.0000 
      7 O4B       100.5130   36.0010   17.0650 O.3       1 NAD4490     0.0000 
      8 C3B       100.6500   36.0800   14.5950 C.3       1 NAD4490     0.0000 
      9 O3B        99.4770   35.5990   13.8580 O.3       1 NAD4490     0.0000 
     10 C2B       100.4120   37.4630   15.1990 C.3       1 NAD4490     0.0000 
     11 O2B        99.5730   38.2940   14.4710 O.3       1 NAD4490     0.0000 
     12 C1B        99.9290   37.2430   16.6560 C.3       1 NAD4490     0.0000 
     13 N9A       100.4700   38.2220   17.5880 N.pl3     1 NAD4490     0.0000 
     14 C8A       101.7480   38.7510   17.7940 C.2       1 NAD4490     0.0000 
     15 N7A       101.8010   39.6390   18.7810 N.2       1 NAD4490     0.0000 
     16 C5A       100.5570   39.7530   19.2880 C.ar      1 NAD4490     0.0000 
     17 C6A        99.9750   40.5620   20.3830 C.ar      1 NAD4490     0.0000 
     18 N6A       100.6900   41.3960   21.1140 N.pl3     1 NAD4490     0.0000 
     19 N1A        98.6100   40.3740   20.5840 N.ar      1 NAD4490     0.0000 
     20 C2A        97.8230   39.5410   19.8790 C.ar      1 NAD4490     0.0000 
     21 N3A        98.3230   38.7500   18.8340 N.ar      1 NAD4490     0.0000 
     22 C4A        99.6970   38.8850   18.5680 C.ar      1 NAD4490     0.0000 
     23 O3        105.2510   35.0130   16.5160 O.3       1 NAD4490     0.0000 
     24 PN        106.0130   34.9380   15.0540 P.3       1 NAD4490     0.0000 
     25 O1N       107.2170   35.7960   15.0770 O.co2     1 NAD4490     0.0000 
     26 O2N       104.9900   35.3050   14.0240 O.co2     1 NAD4490     0.0000 
     27 O5D       106.4690   33.3730   14.9630 O.3       1 NAD4490     0.0000 
     28 C5D       107.7450   32.9210   15.5230 C.3       1 NAD4490     0.0000 
     29 C4D       107.4910   32.3600   16.8750 C.3       1 NAD4490     0.0000 
     30 O4D       106.5730   31.1880   16.7570 O.3       1 NAD4490     0.0000 
     31 C3D       108.7720   31.8000   17.6010 C.3       1 NAD4490     0.0000 
     32 O3D       108.8100   32.2030   18.9860 O.3       1 NAD4490     0.0000 
     33 C2D       108.6420   30.2700   17.4700 C.3       1 NAD4490     0.0000 
     34 O2D       109.3580   29.5670   18.4500 O.3       1 NAD4490     0.0000 
     35 C1D       107.0830   30.0690   17.5260 C.3       1 NAD4490     0.0000 
     36 N1N       106.6000   28.7590   16.9360 N.pl3     1 NAD4490     0.0000 
     37 C2N       106.2540   27.6320   17.7750 C.ar      1 NAD4490     0.0000 
     38 C3N       105.8690   26.4810   17.2040 C.ar      1 NAD4490     0.0000 
     39 C7N       105.5280   25.2940   18.0820 C.2       1 NAD4490     0.0000 
     40 O7N       104.6410   24.4950   17.6930 O.2       1 NAD4490     0.0000 
     41 N7N       106.1860   25.1260   19.2430 N.am      1 NAD4490     0.0000 
     42 C4N       105.7770   26.3260   15.6840 C.ar      1 NAD4490     0.0000 
     43 C5N       106.1810   27.5090   14.8590 C.ar      1 NAD4490     0.0000 
     44 C6N       106.5670   28.7170   15.4960 C.ar      1 NAD4490     0.0000 
     45 H         102.3772   34.1504   16.8875 H         1 NAD4490     0.0000 
     46 H         102.6032   34.2864   15.1353 H         1 NAD4490     0.0000 
     47 H         100.2096   34.3448   15.8053 H         1 NAD4490     0.0000 
     48 H         101.5325   36.0504   14.0709 H         1 NAD4490     0.0000 
     49 H         101.4325   37.9158   15.3140 H         1 NAD4490     0.0000 
     50 H          98.8859   37.1978   16.6776 H         1 NAD4490     0.0000 
     51 H         102.5196   38.4664   17.2360 H         1 NAD4490     0.0000 
     52 H         100.2047   41.8571   21.8569 H         1 NAD4490     0.0000 
     53 H         101.6522   41.4911   20.8586 H         1 NAD4490     0.0000 
     54 H          96.8007   39.4631   20.0987 H         1 NAD4490     0.0000 
     55 H         108.4423   33.7557   15.6001 H         1 NAD4490     0.0000 
     56 H         108.1876   32.1535   14.8874 H         1 NAD4490     0.0000 
     57 H         107.0421   33.0818   17.5250 H         1 NAD4490     0.0000 
     58 H         109.6145   32.1122   17.0403 H         1 NAD4490     0.0000 
     59 H         108.9280   30.0311   16.4502 H         1 NAD4490     0.0000 
     60 H         106.7874   30.1628   18.5480 H         1 NAD4490     0.0000 
     61 H         106.3179   27.7600   18.7886 H         1 NAD4490     0.0000 
     62 H         106.8700   25.8207   19.4656 H         1 NAD4490     0.0000 
     63 H         105.9325   24.3214   19.7800 H         1 NAD4490     0.0000 
     64 H         105.4721   25.5012   15.2917 H         1 NAD4490     0.0000 
     65 H         106.1673   27.4127   13.8582 H         1 NAD4490     0.0000 
     66 H         106.8143   29.5325   14.9622 H         1 NAD4490     0.0000 
     67 H          99.8498   35.0873   13.0839 H         1 NAD4490     0.0000 
     68 H         100.1858   38.8848   13.9462 H         1 NAD4490     0.0000 
     69 H         109.7168   31.9325   19.3093 H         1 NAD4490     0.0000 
     70 H         110.2453   30.0253   18.5007 H         1 NAD4490     0.0000 
@<TRIPOS>BOND
     1    2    1 ar   
     2    3    1 ar   
     3    4    1 1    
     4   23    1 1    
     5    5    4 1    
     6    6    5 1    
     7   45    5 1    
     8   46    5 1    
     9    7    6 1    
    10    8    6 1    
    11   47    6 1    
    12   12    7 1    
    13    9    8 1    
    14   10    8 1    
    15   48    8 1    
    16   67    9 1    
    17   11   10 1    
    18   12   10 1    
    19   49   10 1    
    20   68   11 1    
    21   13   12 1    
    22   50   12 1    
    23   14   13 1    
    24   22   13 1    
    25   15   14 2    
    26   51   14 1    
    27   16   15 1    
    28   17   16 ar   
    29   22   16 ar   
    30   18   17 1    
    31   19   17 ar   
    32   52   18 1    
    33   53   18 1    
    34   20   19 ar   
    35   21   20 ar   
    36   54   20 1    
    37   22   21 ar   
    38   24   23 1    
    39   25   24 ar   
    40   26   24 ar   
    41   27   24 1    
    42   28   27 1    
    43   29   28 1    
    44   55   28 1    
    45   56   28 1    
    46   30   29 1    
    47   31   29 1    
    48   57   29 1    
    49   35   30 1    
    50   32   31 1    
    51   33   31 1    
    52   58   31 1    
    53   69   32 1    
    54   34   33 1    
    55   35   33 1    
    56   59   33 1    
    57   70   34 1    
    58   36   35 1    
    59   60   35 1    
    60   37   36 ar   
    61   44   36 ar   
    62   38   37 ar   
    63   61   37 1    
    64   39   38 1    
    65   42   38 ar   
    66   40   39 2    
    67   41   39 am   
    68   62   41 1    
    69   63   41 1    
    70   43   42 ar   
    71   64   42 1    
    72   44   43 ar   
    73   65   43 1    
    74   66   44 1    
@<TRIPOS>SUBSTRUCTURE
     1 NAD4490     1 GROUP   
@<TRIPOS>SET

