#    Name: 2ivs_ACK_1_INTS_M
#    Modification time : Tue Mar 25 18:45:44 2014

@<TRIPOS>MOLECULE
2ivs_ACK_1_INTS_M
   47     0     9     0     0
SMALL
NO_CHARGES


@<TRIPOS>ATOM
      1 N           7.9880    7.6545   -0.5700 N.am      2 SEC2        0.0000 
      2 N           8.1200    8.3260   -1.9310 N.am      8 SEL2        0.0000 
      3 N           7.8560    6.9830    0.7910 N.am      5 SEP2        0.0000 
      4 N           9.1975    8.4155   -0.9200 N.am      2 SEC2        0.0000 
      5 N          10.2750    8.5050    0.0910 N.am      5 SEP2        0.0000 
      6 CA         10.3445    4.3360   -8.1995 C.3       3 GLC5        0.0000 
      7 CA          9.8840    4.5860   -6.1960 C.3       9 GLL5        0.0000 
      8 CA         10.8050    4.0860  -10.2030 C.3       6 GLP5        0.0000 
      9 CA         11.4960    3.4805   -6.9515 C.3       3 GLC5        0.0000 
     10 CA         13.1080    2.3750   -7.7070 C.3       6 GLP5        0.0000 
     11 CA          9.0700    2.6685   -6.6325 C.3       3 GLC5        0.0000 
     12 CA          8.2560    0.7510   -7.0690 C.3       6 GLP5        0.0000 
     13 CA          5.6860    4.3425   -5.2155 C.3       3 GLC5        0.0000 
     14 CA          7.3240    4.0670   -3.8300 C.3       9 GLL5        0.0000 
     15 CA          4.0480    4.6180   -6.6010 C.3       6 GLP5        0.0000 
     16 CA          6.6050    2.3555   -5.0030 C.3       3 GLC5        0.0000 
     17 CA          5.8860    0.6440   -6.1760 C.3       6 GLP5        0.0000 
     18 CA          3.1270   -0.1875   -0.5370 C.3       3 GLC5        0.0000 
     19 CA          5.1050    0.4270   -1.3840 C.3       9 GLL5        0.0000 
     20 CA          1.1490   -0.8020    0.3100 C.3       6 GLP5        0.0000 
     21 CA          4.6565    1.2445    0.6440 C.3       3 GLC5        0.0000 
     22 CA          4.2080    2.0620    2.6720 C.3       6 GLP5        0.0000 
     23 O           4.3520   -1.6370   -0.3145 O.2       1 ALC1        0.0000 
     24 O           5.2670   -0.8650   -0.9850 O.2       7 ALL1        0.0000 
     25 O           3.4370   -2.4090    0.3560 O.2       4 ALP1        0.0000 
     26 N           3.2190    1.1075    0.1580 N.am      2 SEC2        0.0000 
     27 N           4.0560    1.2070   -1.0560 N.am      8 SEL2        0.0000 
     28 N           2.3820    1.0080    1.3720 N.am      5 SEP2        0.0000 
     29 CA          3.3350    2.7290   -3.2730 C.3       3 GLC5        0.0000 
     30 CA          3.9420    2.5060   -1.4330 C.3       9 GLL5        0.0000 
     31 CA          2.7280    2.9520   -5.1130 C.3       6 GLP5        0.0000 
     32 CA          3.3090    2.2195    0.5055 C.3       3 GLC5        0.0000 
     33 CA          2.6760    1.9330    2.4440 C.3       6 GLP5        0.0000 
     34 CA          4.3595    2.7000   -3.8310 C.3       3 GLC5        0.0000 
     35 CA          5.9910    2.4480   -2.5490 C.3       9 GLL5        0.0000 
     36 CA          7.0750    2.7495   -1.0825 C.3       3 GLC5        0.0000 
     37 CA          8.1590    3.0510    0.3840 C.3       6 GLP5        0.0000 
     38 CA          8.4708    5.4025   -7.4675 C.3       3 GLC5        0.0000 
     39 CA          8.5790    5.0520   -5.5280 C.3       9 GLL5        0.0000 
     40 CA          7.7100    5.9860   -9.0730 C.3       6 GLP5        0.0000 
     41 CA          8.0015    3.7735   -1.5455 C.3       3 GLC5        0.0000 
     42 CA          5.9810    1.1943   -4.2677 C.3       3 GLC5        0.0000 
     43 CA          4.3685   -0.2770   -2.7470 C.3       3 GLC5        0.0000 
     44 CA          6.1610    1.0410   -2.1700 C.3       9 GLL5        0.0000 
     45 CA          3.1040   -1.2880   -3.7170 C.3       6 GLP5        0.0000 
     46 CA          6.6660    0.6945   -0.4535 C.3       3 GLC5        0.0000 
     47 CA          7.6990    0.6550    0.8700 C.3       6 GLP5        0.0000 
@<TRIPOS>BOND
@<TRIPOS>SUBSTRUCTURE
     1 ALC1       23 GROUP        1 X    ALC  0     ROOT ALC X 1
     2 SEC2        1 GROUP        1 X    SEC  0     **** SEC X 2
     3 GLC5        6 GROUP        1 X    GLC  0     **** GLC X 6
     4 ALP1       25 GROUP        1 Y    ALP  0     ROOT ALP Y 8
     5 SEP2        3 GROUP        1 Y    SEP  0     **** SEP Y 9
     6 GLP5        8 GROUP        1 Y    GLP  0     **** GLP Y 13
     7 ALL1       24 GROUP        1 Z    ALL  0     ROOT ALL Z 15
     8 SEL2        2 GROUP        1 Z    SEL  0     **** SEL Z 16
     9 GLL5        7 GROUP        1 Z    GLL  0     **** GLL Z 20
@<TRIPOS>SET

