#    Name: 2ivs_ACK_1_ligand
#    Modification time : Tue Mar 25 18:45:44 2014

@<TRIPOS>MOLECULE
2ivs_ACK_1_ligand
   33    36     1     0     0
SMALL
NO_CHARGES


@<TRIPOS>ATOM
      1 O3P         8.1200    8.3260   -1.9310 O.co2     1 ACK3016     0.0000 
      2 P           7.4390    7.2830   -2.7390 P.3       1 ACK3016     0.0000 
      3 O1P         5.9290    7.3570   -2.8950 O.co2     1 ACK3016     0.0000 
      4 O2P         7.6960    5.7650   -2.2050 O.3       1 ACK3016     0.0000 
      5 O5'         8.1420    7.0690   -4.1600 O.3       1 ACK3016     0.0000 
      6 C5'         8.8620    5.8280   -4.2420 C.3       1 ACK3016     0.0000 
      7 C4'         8.5790    5.0520   -5.5280 C.3       1 ACK3016     0.0000 
      8 O4'         7.7710    3.9100   -5.1690 O.3       1 ACK3016     0.0000 
      9 C3'         9.8840    4.5860   -6.1960 C.3       1 ACK3016     0.0000 
     10 O3'        10.5920    3.7070   -5.3290 O.3       1 ACK3016     0.0000 
     11 C1'         7.3240    4.0670   -3.8300 C.3       1 ACK3016     0.0000 
     12 N9          7.0910    2.7390   -3.2190 N.pl3     1 ACK3016     0.0000 
     13 C8          7.9040    1.6620   -3.2790 C.2       1 ACK3016     0.0000 
     14 N7          7.3400    0.6090   -2.6450 N.2       1 ACK3016     0.0000 
     15 C5          6.1610    1.0410   -2.1700 C.ar      1 ACK3016     0.0000 
     16 C6          5.1050    0.4270   -1.3840 C.ar      1 ACK3016     0.0000 
     17 N6          5.2670   -0.8650   -0.9850 N.pl3     1 ACK3016     0.0000 
     18 N1          4.0560    1.2070   -1.0560 N.ar      1 ACK3016     0.0000 
     19 C2          3.9420    2.5060   -1.4330 C.ar      1 ACK3016     0.0000 
     20 N3          4.8650    3.1450   -2.1710 N.ar      1 ACK3016     0.0000 
     21 C4          5.9910    2.4480   -2.5490 C.ar      1 ACK3016     0.0000 
     22 C2'         8.3640    4.9250   -3.1200 C.3       1 ACK3016     0.0000 
     23 H           9.9091    5.9438   -4.1277 H         1 ACK3016     0.0000 
     24 H           8.0523    5.6950   -6.2041 H         1 ACK3016     0.0000 
     25 H          10.4674    5.4836   -6.4376 H         1 ACK3016     0.0000 
     26 H           9.6128    4.1004   -7.1421 H         1 ACK3016     0.0000 
     27 H           6.3854    4.6343   -3.8324 H         1 ACK3016     0.0000 
     28 H           8.7772    1.6452   -3.7186 H         1 ACK3016     0.0000 
     29 H           4.5214   -1.2556   -0.4451 H         1 ACK3016     0.0000 
     30 H           6.1173   -1.3093   -1.2670 H         1 ACK3016     0.0000 
     31 H           3.0744    3.0410   -1.1251 H         1 ACK3016     0.0000 
     32 H           9.1194    4.3591   -2.7548 H         1 ACK3016     0.0000 
     33 H          10.3314    2.7876   -5.6236 H         1 ACK3016     0.0000 
@<TRIPOS>BOND
     1    2    1 ar   
     2    3    2 ar   
     3    4    2 1    
     4    5    2 1    
     5   22    4 1    
     6    6    5 1    
     7    7    6 1    
     8   22    6 1    
     9   23    6 1    
    10    8    7 1    
    11    9    7 1    
    12   24    7 1    
    13   11    8 1    
    14   10    9 1    
    15   25    9 1    
    16   26    9 1    
    17   33   10 1    
    18   12   11 1    
    19   22   11 1    
    20   27   11 1    
    21   13   12 1    
    22   21   12 1    
    23   14   13 2    
    24   28   13 1    
    25   15   14 1    
    26   16   15 ar   
    27   21   15 ar   
    28   17   16 1    
    29   18   16 ar   
    30   29   17 1    
    31   30   17 1    
    32   19   18 ar   
    33   20   19 ar   
    34   31   19 1    
    35   21   20 ar   
    36   32   22 1    
@<TRIPOS>SUBSTRUCTURE
     1 ACK3016     1 GROUP   
@<TRIPOS>SET

