#    Name: 3qj4_FAD_2_INTS_M
#    Modification time : Mon Apr  7 19:36:48 2014

@<TRIPOS>MOLECULE
3qj4_FAD_2_INTS_M
  126     0    12     0     0
SMALL
NO_CHARGES


@<TRIPOS>ATOM
      1 N          28.2935   35.9850   26.9860 N.am      2 SEC2        0.0000 
      2 N          27.4860   37.1550   27.4500 N.am     10 SEL2        0.0000 
      3 N          29.1010   34.8150   26.5220 N.am      6 SEP2        0.0000 
      4 NZ         25.4865   38.0090   24.7795 N.4       3 LYC4        0.0000 
      5 NZ         25.3570   36.9350   25.9040 N.4      11 LYL4        0.0000 
      6 NZ         26.5180   38.4250   22.9490 N.4       7 LYP4        0.0000 
      7 N          26.0945   37.0540   24.5855 N.am      2 SEC2        0.0000 
      8 N          25.3570   36.9350   25.9040 N.am     10 SEL2        0.0000 
      9 N          26.8320   37.1730   23.2670 N.am      6 SEP2        0.0000 
     10 N          25.4865   38.0090   24.7795 N.am      2 SEC2        0.0000 
     11 N          25.6160   39.0830   23.6550 N.am      6 SEP2        0.0000 
     12 CA         22.0740   37.6830   27.6745 C.3       4 GLC5        0.0000 
     13 CA         23.7510   36.7200   28.2540 C.3      12 GLL5        0.0000 
     14 CA         20.3970   38.6460   27.0950 C.3       8 GLP5        0.0000 
     15 CA         22.8360   37.1840   26.4485 C.3       4 GLC5        0.0000 
     16 CA         21.9210   37.6480   24.6430 C.3       8 GLP5        0.0000 
     17 CA         22.6935   35.9710   30.7455 C.3       4 GLC5        0.0000 
     18 CA         23.4480   35.4830   29.0870 C.3      12 GLL5        0.0000 
     19 CA         21.9390   36.4590   32.4040 C.3       8 GLP5        0.0000 
     20 CA         25.9110   34.0435   28.4695 C.3       4 GLC5        0.0000 
     21 CA         23.9380   34.1600   28.5060 C.3      12 GLL5        0.0000 
     22 CA         27.8840   33.9270   28.4330 C.3       8 GLP5        0.0000 
     23 O          24.3265   33.3905   30.8610 O.2       1 ALC1        0.0000 
     24 O          24.7320   33.5430   29.5180 O.2       9 ALL1        0.0000 
     25 O          23.9210   33.2380   32.2040 O.2       5 ALP1        0.0000 
     26 O          23.9590   32.4125   30.5265 O.2       1 ALC1        0.0000 
     27 O          23.1860   31.2820   31.5350 O.2       5 ALP1        0.0000 
     28 O          23.0105   31.6090   30.0040 O.2       1 ALC1        0.0000 
     29 O          22.8350   31.9360   28.4730 O.2       9 ALL1        0.0000 
     30 CA         21.8205   35.1980   30.8660 C.3       4 GLC5        0.0000 
     31 CA         21.7020   33.9370   29.3280 C.3      12 GLL5        0.0000 
     32 CA         16.2160   31.5695   30.6720 C.3       4 GLC5        0.0000 
     33 CA         16.9020   33.2840   29.6630 C.3      12 GLL5        0.0000 
     34 CA         15.5300   29.8550   31.6810 C.3       8 GLP5        0.0000 
     35 CA         15.1220   33.7840   30.8960 C.3       4 GLC5        0.0000 
     36 CA         13.3420   34.2840   32.1290 C.3       8 GLP5        0.0000 
     37 O          14.1960   32.9790   29.2710 O.2       1 ALC1        0.0000 
     38 O          15.7080   33.2990   29.0120 O.2       9 ALL1        0.0000 
     39 O          12.6840   32.6590   29.5300 O.2       5 ALP1        0.0000 
     40 N          15.5700   32.4705   31.3980 N.am      2 SEC2        0.0000 
     41 N          16.8990   32.9840   31.0140 N.am     10 SEL2        0.0000 
     42 N          14.2410   31.9570   31.7820 N.am      6 SEP2        0.0000 
     43 CA         17.6530   34.6385   31.9990 C.3       4 GLC5        0.0000 
     44 CA         18.0700   32.9500   31.6900 C.3      12 GLL5        0.0000 
     45 CA         17.2360   36.3270   32.3080 C.3       8 GLP5        0.0000 
     46 CA         19.5940   32.4170   32.7210 C.3       4 GLC5        0.0000 
     47 CA         21.1180   31.8840   33.7520 C.3       8 GLP5        0.0000 
     48 CA         18.5740   31.2090   30.8585 C.3       4 GLC5        0.0000 
     49 CA         19.0780   29.4680   30.0270 C.3       8 GLP5        0.0000 
     50 CA         16.8000   31.4025   31.6855 C.3       4 GLC5        0.0000 
     51 N          19.7835   31.8065   31.5735 N.am      2 SEC2        0.0000 
     52 N          19.3030   33.2110   31.1510 N.am     10 SEL2        0.0000 
     53 N          20.2640   30.4020   31.9960 N.am      6 SEP2        0.0000 
     54 N          35.1215   43.4695   25.0170 N.am      2 SEC2        0.0000 
     55 N          35.9420   42.4480   24.2310 N.am     10 SEL2        0.0000 
     56 N          34.3010   44.4910   25.8030 N.am      6 SEP2        0.0000 
     57 O          38.4475   40.9225   23.6390 O.2       1 ALC1        0.0000 
     58 O          37.0500   40.9000   23.0230 O.2       9 ALL1        0.0000 
     59 O          39.8450   40.9450   24.2550 O.2       5 ALP1        0.0000 
     60 N          38.3030   37.9490   22.6085 N.am      2 SEC2        0.0000 
     61 N          38.2090   39.3600   21.7940 N.am     10 SEL2        0.0000 
     62 N          38.3970   36.5380   23.4230 N.am      6 SEP2        0.0000 
     63 CA         33.1055   34.6305   16.7470 C.3       4 GLC5        0.0000 
     64 CA         33.4320   34.4140   18.8150 C.3      12 GLL5        0.0000 
     65 CA         32.7790   34.8470   14.6790 C.3       8 GLP5        0.0000 
     66 CA         34.8840   33.1125   18.5810 C.3       4 GLC5        0.0000 
     67 CA         36.3360   31.8110   18.3470 C.3       8 GLP5        0.0000 
     68 CA         32.2210   33.0375   19.1920 C.3       4 GLC5        0.0000 
     69 CA         31.0100   31.6610   19.5690 C.3       8 GLP5        0.0000 
     70 CA         30.6140   35.8435   18.7825 C.3       4 GLC5        0.0000 
     71 CA         32.0920   36.0200   20.4060 C.3      12 GLL5        0.0000 
     72 CA         29.1360   35.6670   17.1590 C.3       8 GLP5        0.0000 
     73 CA         29.3160   35.8095   21.4420 C.3       4 GLC5        0.0000 
     74 CA         30.8070   35.2590   20.3150 C.3      12 GLL5        0.0000 
     75 CA         27.8250   36.3600   22.5690 C.3       8 GLP5        0.0000 
     76 CA         30.2460   33.5665   20.0650 C.3       4 GLC5        0.0000 
     77 CA         29.6850   31.8740   19.8150 C.3       8 GLP5        0.0000 
     78 CA         29.4885   35.7645   19.2465 C.3       4 GLC5        0.0000 
     79 CA         28.1700   36.2700   18.1780 C.3       8 GLP5        0.0000 
     80 CA         30.8205   36.4810   22.7320 C.3       4 GLC5        0.0000 
     81 CA         32.0860   37.1970   21.1850 C.3      12 GLL5        0.0000 
     82 CA         29.5550   35.7650   24.2790 C.3       8 GLP5        0.0000 
     83 CA         33.0375   39.8040   26.0630 C.3       4 GLC5        0.0000 
     84 CA         32.0410   39.6310   24.2010 C.3      12 GLL5        0.0000 
     85 CA         34.0340   39.9770   27.9250 C.3       8 GLP5        0.0000 
     86 CA         33.8085   38.5690   24.5425 C.3       4 GLC5        0.0000 
     87 CA         35.5760   37.5070   24.8840 C.3       8 GLP5        0.0000 
     88 CA         30.0675   37.9250   24.3725 C.3       4 GLC5        0.0000 
     89 CA         30.5800   40.0850   24.4660 C.3      12 GLL5        0.0000 
     90 CA         30.3165   40.3485   28.0680 C.3       4 GLC5        0.0000 
     91 CA         30.1290   40.0040   25.9290 C.3      12 GLL5        0.0000 
     92 CA         30.5040   40.6930   30.2070 C.3       8 GLP5        0.0000 
     93 CA         32.0815   39.9905   26.9270 C.3       4 GLC5        0.0000 
     94 CA         27.8785   42.0975   24.8330 C.3       4 GLC5        0.0000 
     95 CA         28.6610   40.4360   26.0390 C.3      12 GLL5        0.0000 
     96 CA         27.0960   43.7590   23.6270 C.3       8 GLP5        0.0000 
     97 N          27.1345   41.0215   30.1690 N.am      2 SEC2        0.0000 
     98 N          26.5230   40.1470   29.1130 N.am     10 SEL2        0.0000 
     99 N          27.7460   41.8960   31.2250 N.am      6 SEP2        0.0000 
    100 N          26.5770   41.8345   29.1720 N.am      2 SEC2        0.0000 
    101 N          26.6310   43.5220   29.2310 N.am      6 SEP2        0.0000 
    102 N          26.3850   42.5425   28.1390 N.am      2 SEC2        0.0000 
    103 N          26.1390   41.5630   27.0470 N.am     10 SEL2        0.0000 
    104 N          25.6755   42.9330   26.1010 N.am      2 SEC2        0.0000 
    105 N          25.2120   44.3030   25.1550 N.am      6 SEP2        0.0000 
    106 N          25.7110   39.0535   25.3290 N.am      2 SEC2        0.0000 
    107 N          25.8060   39.0240   27.0030 N.am     10 SEL2        0.0000 
    108 CA         21.1015   31.7613   28.8558 C.3       4 GLC5        0.0000 
    109 CA         22.6560   33.3380   28.2810 C.3      12 GLL5        0.0000 
    110 CA         20.0240   29.8850   28.9070 C.3       8 GLP5        0.0000 
    111 CA         16.6345   35.0585   28.8428 C.3       4 GLC5        0.0000 
    112 CA         18.1260   33.5700   28.9960 C.3      12 GLL5        0.0000 
    113 CA         15.7550   36.6900   28.3560 C.3       8 GLP5        0.0000 
    114 CA         17.8137   34.8990   30.9381 C.3       4 GLC5        0.0000 
    115 CA         18.8503   31.9695   28.6361 C.3       4 GLC5        0.0000 
    116 CA         19.3090   30.4680   27.7040 C.3       8 GLP5        0.0000 
    117 CA         33.3965   34.3896   21.4401 C.3       4 GLC5        0.0000 
    118 CA         33.3160   35.6350   19.7020 C.3      12 GLL5        0.0000 
    119 CA         34.0600   33.2570   23.0480 C.3       8 GLP5        0.0000 
    120 CA         34.9264   36.9899   22.3163 C.3       4 GLC5        0.0000 
    121 CA         33.2430   38.0190   21.2970 C.3      12 GLL5        0.0000 
    122 CA         36.0070   36.4690   23.8570 C.3       8 GLP5        0.0000 
    123 CA         31.9590   38.4339   19.5046 C.3       4 GLC5        0.0000 
    124 CA         31.2520   39.5540   17.9630 C.3       8 GLP5        0.0000 
    125 CA         29.5705   41.8165   26.7125 C.3       4 GLC5        0.0000 
    126 CA         29.7460   43.4130   27.4410 C.3       8 GLP5        0.0000 
@<TRIPOS>BOND
@<TRIPOS>SUBSTRUCTURE
     1 ALC1       23 GROUP        1 X    ALC  0     ROOT ALC X 1
     2 SEC2        1 GROUP        1 X    SEC  0     **** SEC X 2
     3 LYC4        4 GROUP        1 X    LYC  0     **** LYC X 4
     4 GLC5       12 GROUP        1 X    GLC  0     **** GLC X 6
     5 ALP1       25 GROUP        1 Y    ALP  0     ROOT ALP Y 8
     6 SEP2        3 GROUP        1 Y    SEP  0     **** SEP Y 9
     7 LYP4        6 GROUP        1 Y    LYP  0     **** LYP Y 11
     8 GLP5       14 GROUP        1 Y    GLP  0     **** GLP Y 13
     9 ALL1       24 GROUP        1 Z    ALL  0     ROOT ALL Z 15
    10 SEL2        2 GROUP        1 Z    SEL  0     **** SEL Z 16
    11 LYL4        5 GROUP        1 Z    LYL  0     **** LYL Z 18
    12 GLL5       13 GROUP        1 Z    GLL  0     **** GLL Z 20
@<TRIPOS>SET

