#    Name: 3qj4_FAD_2_ligand
#    Modification time : Mon Apr  7 19:36:48 2014

@<TRIPOS>MOLECULE
3qj4_FAD_2_ligand
   84    89     1     0     0
SMALL
NO_CHARGES


@<TRIPOS>ATOM
      1 PA         26.0400   37.4680   27.1440 P.3       1 FAD401      0.0000 
      2 O1A        27.4860   37.1550   27.4500 O.co2     1 FAD401      0.0000 
      3 O2A        25.3570   36.9350   25.9040 O.co2     1 FAD401      0.0000 
      4 O5B        25.1250   37.0610   28.4380 O.3       1 FAD401      0.0000 
      5 C5B        23.7510   36.7200   28.2540 C.3       1 FAD401      0.0000 
      6 C4B        23.4480   35.4830   29.0870 C.3       1 FAD401      0.0000 
      7 O4B        21.9880   35.3460   29.2590 O.3       1 FAD401      0.0000 
      8 C3B        23.9380   34.1600   28.5060 C.3       1 FAD401      0.0000 
      9 O3B        24.7320   33.5430   29.5180 O.3       1 FAD401      0.0000 
     10 C2B        22.6560   33.3380   28.2810 C.3       1 FAD401      0.0000 
     11 O2B        22.8350   31.9360   28.4730 O.3       1 FAD401      0.0000 
     12 C1B        21.7020   33.9370   29.3280 C.3       1 FAD401      0.0000 
     13 N9A        20.3090   33.8430   28.9550 N.pl3     1 FAD401      0.0000 
     14 C8A        19.7690   34.0750   27.7180 C.2       1 FAD401      0.0000 
     15 N7A        18.4760   33.9160   27.6870 N.2       1 FAD401      0.0000 
     16 C5A        18.1260   33.5700   28.9960 C.ar      1 FAD401      0.0000 
     17 C6A        16.9020   33.2840   29.6630 C.ar      1 FAD401      0.0000 
     18 N6A        15.7080   33.2990   29.0120 N.pl3     1 FAD401      0.0000 
     19 N1A        16.8990   32.9840   31.0140 N.ar      1 FAD401      0.0000 
     20 C2A        18.0700   32.9500   31.6900 C.ar      1 FAD401      0.0000 
     21 N3A        19.3030   33.2110   31.1510 N.ar      1 FAD401      0.0000 
     22 C4A        19.2690   33.5150   29.8070 C.ar      1 FAD401      0.0000 
     23 N1         34.7050   40.9020   23.1750 N.2       1 FAD401      0.0000 
     24 C2         35.8950   41.4930   23.4650 C.2       1 FAD401      0.0000 
     25 O2         35.9420   42.4480   24.2310 O.2       1 FAD401      0.0000 
     26 N3         37.0500   40.9000   23.0230 N.am      1 FAD401      0.0000 
     27 C4         37.1360   39.8380   22.1460 C.2       1 FAD401      0.0000 
     28 O4         38.2090   39.3600   21.7940 O.2       1 FAD401      0.0000 
     29 C4X        35.7820   39.2830   21.6930 C.2       1 FAD401      0.0000 
     30 N5         35.6880   38.2420   20.8670 N.2       1 FAD401      0.0000 
     31 C5X        34.4420   37.5680   20.6710 C.ar      1 FAD401      0.0000 
     32 C6         34.4550   36.4370   19.8370 C.ar      1 FAD401      0.0000 
     33 C7         33.3160   35.6350   19.7020 C.ar      1 FAD401      0.0000 
     34 C7M        33.4320   34.4140   18.8150 C.3       1 FAD401      0.0000 
     35 C8         32.0920   36.0200   20.4060 C.ar      1 FAD401      0.0000 
     36 C8M        30.8070   35.2590   20.3150 C.3       1 FAD401      0.0000 
     37 C9         32.0860   37.1970   21.1850 C.ar      1 FAD401      0.0000 
     38 C9A        33.2430   38.0190   21.2970 C.ar      1 FAD401      0.0000 
     39 N10        33.3200   39.1800   22.1180 N.pl3     1 FAD401      0.0000 
     40 C10        34.5570   39.8500   22.3740 C.2       1 FAD401      0.0000 
     41 C1'        32.0750   39.6440   22.7070 C.3       1 FAD401      0.0000 
     42 C2'        32.0410   39.6310   24.2010 C.3       1 FAD401      0.0000 
     43 O2'        32.2370   38.2530   24.5270 O.3       1 FAD401      0.0000 
     44 C3'        30.5800   40.0850   24.4660 C.3       1 FAD401      0.0000 
     45 O3'        30.4090   41.4060   23.9130 O.3       1 FAD401      0.0000 
     46 C4'        30.1290   40.0040   25.9290 C.3       1 FAD401      0.0000 
     47 O4'        30.2000   38.6050   26.2250 O.3       1 FAD401      0.0000 
     48 C5'        28.6610   40.4360   26.0390 C.3       1 FAD401      0.0000 
     49 O5'        28.0650   39.8450   27.2000 O.3       1 FAD401      0.0000 
     50 P          26.5650   40.2400   27.6350 P.3       1 FAD401      0.0000 
     51 O1P        26.5230   40.1470   29.1130 O.co2     1 FAD401      0.0000 
     52 O2P        26.1390   41.5630   27.0470 O.co2     1 FAD401      0.0000 
     53 O3P        25.8060   39.0240   27.0030 O.3       1 FAD401      0.0000 
     54 H          23.5261   36.4886   27.2116 H         1 FAD401      0.0000 
     55 H          23.0864   37.5202   28.5836 H         1 FAD401      0.0000 
     56 H          23.8923   35.6023   30.0757 H         1 FAD401      0.0000 
     57 H          24.4197   34.3252   27.6123 H         1 FAD401      0.0000 
     58 H          22.2705   33.6019   27.3194 H         1 FAD401      0.0000 
     59 H          21.9140   33.5581   30.2665 H         1 FAD401      0.0000 
     60 H          20.3397   34.3385   26.9388 H         1 FAD401      0.0000 
     61 H          14.9014   33.0969   29.5675 H         1 FAD401      0.0000 
     62 H          15.7420   33.5108   28.0353 H         1 FAD401      0.0000 
     63 H          18.0389   32.6988   32.7344 H         1 FAD401      0.0000 
     64 H          37.9791   41.2983   23.3933 H         1 FAD401      0.0000 
     65 H          35.3130   36.1979   19.3208 H         1 FAD401      0.0000 
     66 H          31.2290   37.4716   21.6851 H         1 FAD401      0.0000 
     67 H          31.2211   39.0276   22.3300 H         1 FAD401      0.0000 
     68 H          31.8517   40.6833   22.3588 H         1 FAD401      0.0000 
     69 H          32.7027   40.2885   24.5824 H         1 FAD401      0.0000 
     70 H          29.9367   39.3810   23.8833 H         1 FAD401      0.0000 
     71 H          30.7390   40.5802   26.5245 H         1 FAD401      0.0000 
     72 H          28.1533   40.1254   25.1193 H         1 FAD401      0.0000 
     73 H          28.6390   41.5303   26.0838 H         1 FAD401      0.0000 
     74 H          33.6715   34.6589   17.8755 H         1 FAD401      0.0000 
     75 H          34.1355   33.7830   19.1419 H         1 FAD401      0.0000 
     76 H          32.5743   33.9014   18.7747 H         1 FAD401      0.0000 
     77 H          30.9101   34.3167   20.6335 H         1 FAD401      0.0000 
     78 H          30.0871   35.6782   20.8682 H         1 FAD401      0.0000 
     79 H          30.4669   35.2154   19.3756 H         1 FAD401      0.0000 
     80 H          24.1765   33.5915   30.3481 H         1 FAD401      0.0000 
     81 H          22.9073   31.8177   29.4633 H         1 FAD401      0.0000 
     82 H          31.5483   38.0515   25.2235 H         1 FAD401      0.0000 
     83 H          29.4996   41.3966   23.4972 H         1 FAD401      0.0000 
     84 H          29.2818   38.3594   26.5358 H         1 FAD401      0.0000 
@<TRIPOS>BOND
     1    2    1 ar   
     2    3    1 ar   
     3    4    1 1    
     4   53    1 1    
     5    5    4 1    
     6    6    5 1    
     7   54    5 1    
     8   55    5 1    
     9    7    6 1    
    10    8    6 1    
    11   56    6 1    
    12   12    7 1    
    13    9    8 1    
    14   10    8 1    
    15   57    8 1    
    16   80    9 1    
    17   11   10 1    
    18   12   10 1    
    19   58   10 1    
    20   81   11 1    
    21   13   12 1    
    22   59   12 1    
    23   14   13 1    
    24   22   13 1    
    25   15   14 2    
    26   60   14 1    
    27   16   15 1    
    28   17   16 ar   
    29   22   16 ar   
    30   18   17 1    
    31   19   17 ar   
    32   61   18 1    
    33   62   18 1    
    34   20   19 ar   
    35   21   20 ar   
    36   63   20 1    
    37   22   21 ar   
    38   24   23 1    
    39   40   23 2    
    40   25   24 2    
    41   26   24 am   
    42   27   26 am   
    43   64   26 1    
    44   28   27 2    
    45   29   27 1    
    46   30   29 2    
    47   40   29 1    
    48   31   30 1    
    49   32   31 ar   
    50   38   31 ar   
    51   33   32 ar   
    52   65   32 1    
    53   34   33 1    
    54   35   33 ar   
    55   74   34 1    
    56   75   34 1    
    57   76   34 1    
    58   36   35 1    
    59   37   35 ar   
    60   77   36 1    
    61   78   36 1    
    62   79   36 1    
    63   38   37 ar   
    64   66   37 1    
    65   39   38 1    
    66   40   39 1    
    67   41   39 1    
    68   42   41 1    
    69   67   41 1    
    70   68   41 1    
    71   43   42 1    
    72   44   42 1    
    73   69   42 1    
    74   82   43 1    
    75   45   44 1    
    76   46   44 1    
    77   70   44 1    
    78   83   45 1    
    79   47   46 1    
    80   48   46 1    
    81   71   46 1    
    82   84   47 1    
    83   49   48 1    
    84   72   48 1    
    85   73   48 1    
    86   50   49 1    
    87   51   50 ar   
    88   52   50 ar   
    89   53   50 1    
@<TRIPOS>SUBSTRUCTURE
     1 FAD401      1 GROUP   
@<TRIPOS>SET

