#    Name: 3d4p_NAD_2_INTS_M
#    Modification time : Mon Mar 24 22:41:33 2014

@<TRIPOS>MOLECULE
3d4p_NAD_2_INTS_M
   88     0     9     0     0
SMALL
NO_CHARGES


@<TRIPOS>ATOM
      1 N          28.4815   32.6120   34.3610 N.am      2 SEC2        0.0000 
      2 N          27.9270   31.2640   33.8520 N.am      8 SEL2        0.0000 
      3 N          29.0360   33.9600   34.8700 N.am      5 SEP2        0.0000 
      4 CA         22.4210   31.2335   32.0920 C.3       3 GLC5        0.0000 
      5 CA         24.0780   31.5040   33.5770 C.3       9 GLL5        0.0000 
      6 CA         20.7640   30.9630   30.6070 C.3       6 GLP5        0.0000 
      7 CA         23.9015   30.0070   32.0635 C.3       3 GLC5        0.0000 
      8 CA         23.7250   28.5100   30.5500 C.3       6 GLP5        0.0000 
      9 CA         22.3740   33.7570   35.4310 C.3       3 GLC5        0.0000 
     10 CA         23.3330   31.8200   34.8800 C.3       9 GLL5        0.0000 
     11 CA         21.4150   35.6940   35.9820 C.3       6 GLP5        0.0000 
     12 N          21.3625   31.9585   33.0760 N.am      2 SEC2        0.0000 
     13 N          21.9630   31.8350   34.5820 N.am      8 SEL2        0.0000 
     14 N          20.7620   32.0820   31.5700 N.am      5 SEP2        0.0000 
     15 O          22.7215   31.3570   38.2265 O.2       1 ALC1        0.0000 
     16 O          23.9740   31.2820   37.1610 O.2       7 ALL1        0.0000 
     17 O          21.4690   31.4320   39.2920 O.2       4 ALP1        0.0000 
     18 O          23.1430   32.1930   37.6580 O.2       1 ALC1        0.0000 
     19 O          22.3120   33.1040   38.1550 O.2       4 ALP1        0.0000 
     20 O          21.6435   30.5635   38.3335 O.2       1 ALC1        0.0000 
     21 O          21.8180   29.6950   37.3750 O.2       7 ALL1        0.0000 
     22 CA         21.3335   33.5165   35.8385 C.3       3 GLC5        0.0000 
     23 CA         21.2520   31.3390   35.6950 C.3       9 GLL5        0.0000 
     24 CA         20.1050   32.7730   34.5105 C.3       3 GLC5        0.0000 
     25 CA         18.9580   34.2070   33.3260 C.3       6 GLP5        0.0000 
     26 CA         17.5130   29.5025   36.3300 C.3       3 GLC5        0.0000 
     27 CA         17.6890   30.8400   35.2200 C.3       9 GLL5        0.0000 
     28 CA         17.3370   28.1650   37.4400 C.3       6 GLP5        0.0000 
     29 CA         16.7910   30.2570   37.0380 C.3       3 GLC5        0.0000 
     30 CA         16.4120   31.2610   35.5660 C.3       9 GLL5        0.0000 
     31 CA         17.1700   29.2530   38.5100 C.3       6 GLP5        0.0000 
     32 CA         15.9380   32.8775   34.4850 C.3       3 GLC5        0.0000 
     33 CA         15.4640   34.4940   33.4040 C.3       6 GLP5        0.0000 
     34 CA         17.0755   34.8125   36.7375 C.3       3 GLC5        0.0000 
     35 CA         17.3380   32.8970   37.0530 C.3       9 GLL5        0.0000 
     36 CA         16.8130   36.7280   36.4220 C.3       6 GLP5        0.0000 
     37 CA         18.4495   33.2725   38.6420 C.3       3 GLC5        0.0000 
     38 CA         19.5610   33.6480   40.2310 C.3       6 GLP5        0.0000 
     39 CA         17.2540   31.0750   37.7815 C.3       3 GLC5        0.0000 
     40 CA         18.1480   33.5520   35.1895 C.3       3 GLC5        0.0000 
     41 CA         16.4010   33.6955   35.2285 C.3       3 GLC5        0.0000 
     42 CA         17.9685   30.3650   37.1515 C.3       3 GLC5        0.0000 
     43 CA         18.7670   31.4770   35.7930 C.3       9 GLL5        0.0000 
     44 N          28.1270   35.1680   32.6565 N.am      2 SEC2        0.0000 
     45 N          27.3020   34.0980   32.2640 N.am      8 SEL2        0.0000 
     46 N          28.9520   36.2380   33.0490 N.am      5 SEP2        0.0000 
     47 CA         26.8435   35.2605   30.1215 C.3       3 GLC5        0.0000 
     48 CA         25.2200   33.8950   30.1110 C.3       9 GLL5        0.0000 
     49 CA         28.4670   36.6260   30.1320 C.3       6 GLP5        0.0000 
     50 CA         23.0595   35.2260   27.8150 C.3       3 GLC5        0.0000 
     51 CA         24.5600   34.1910   28.7770 C.3       9 GLL5        0.0000 
     52 CA         21.5590   36.2610   26.8530 C.3       6 GLP5        0.0000 
     53 CA         25.3080   31.1580   27.6245 C.3       3 GLC5        0.0000 
     54 CA         24.6890   33.0560   27.7510 C.3       9 GLL5        0.0000 
     55 CA         25.9270   29.2600   27.4980 C.3       6 GLP5        0.0000 
     56 CA         22.5535   33.5560   27.5655 C.3       3 GLC5        0.0000 
     57 CA         20.4180   34.0560   27.3800 C.3       6 GLP5        0.0000 
     58 N          22.9185   34.0190   25.8930 N.am      2 SEC2        0.0000 
     59 N          23.5730   33.0660   26.8830 N.am      8 SEL2        0.0000 
     60 N          22.2640   34.9720   24.9030 N.am      5 SEP2        0.0000 
     61 O          23.1625   31.8390   26.5595 O.2       1 ALC1        0.0000 
     62 O          23.5730   33.0660   26.8830 O.2       7 ALL1        0.0000 
     63 O          22.7520   30.6120   26.2360 O.2       4 ALP1        0.0000 
     64 CA         26.6330   31.5905   27.2085 C.3       3 GLC5        0.0000 
     65 CA         25.8610   33.5280   26.8950 C.3       9 GLL5        0.0000 
     66 CA         27.4050   29.6530   27.5220 C.3       6 GLP5        0.0000 
     67 N          25.8925   33.9410   24.4000 N.am      2 SEC2        0.0000 
     68 N          25.9250   32.9310   25.6040 N.am      8 SEL2        0.0000 
     69 N          25.8600   34.9510   23.1960 N.am      5 SEP2        0.0000 
     70 CA         23.5555   35.6360   26.8600 C.3       3 GLC5        0.0000 
     71 CA         25.5520   35.0110   26.8670 C.3       9 GLL5        0.0000 
     72 CA         27.5390   39.4190   26.2615 C.3       3 GLC5        0.0000 
     73 CA         27.2960   37.8140   25.2220 C.3       9 GLL5        0.0000 
     74 CA         27.7820   41.0240   27.3010 C.3       6 GLP5        0.0000 
     75 CA         29.8820   39.2180   24.6535 C.3       3 GLC5        0.0000 
     76 CA         28.6470   37.5870   25.5550 C.3       9 GLL5        0.0000 
     77 CA         31.1170   40.8490   23.7520 C.3       6 GLP5        0.0000 
     78 CA         25.2766   32.3983   35.5716 C.3       3 GLC5        0.0000 
     79 CA         26.9410   33.5980   36.0610 C.3       6 GLP5        0.0000 
     80 CA         16.3732   31.3158   33.3770 C.3       3 GLC5        0.0000 
     81 CA         15.6960   31.5810   31.3610 C.3       6 GLP5        0.0000 
     82 CA         18.4334   32.7354   34.4595 C.3       3 GLC5        0.0000 
     83 CA         24.6602   34.1928   24.9755 C.3       3 GLC5        0.0000 
     84 CA         23.6140   34.1160   23.0700 C.3       6 GLP5        0.0000 
     85 CA         29.2647   38.3690   27.1287 C.3       3 GLC5        0.0000 
     86 CA         28.9780   36.4870   26.3520 C.3       9 GLL5        0.0000 
     87 CA         29.7170   39.7010   28.3040 C.3       6 GLP5        0.0000 
     88 CA         28.4667   36.3453   28.3540 C.3       3 GLC5        0.0000 
@<TRIPOS>BOND
@<TRIPOS>SUBSTRUCTURE
     1 ALC1       15 GROUP        1 X    ALC  0     ROOT ALC X 1
     2 SEC2        1 GROUP        1 X    SEC  0     **** SEC X 2
     3 GLC5        4 GROUP        1 X    GLC  0     **** GLC X 6
     4 ALP1       17 GROUP        1 Y    ALP  0     ROOT ALP Y 8
     5 SEP2        3 GROUP        1 Y    SEP  0     **** SEP Y 9
     6 GLP5        6 GROUP        1 Y    GLP  0     **** GLP Y 13
     7 ALL1       16 GROUP        1 Z    ALL  0     ROOT ALL Z 15
     8 SEL2        2 GROUP        1 Z    SEL  0     **** SEL Z 16
     9 GLL5        5 GROUP        1 Z    GLL  0     **** GLL Z 20
@<TRIPOS>SET

