#    Name: 3d4p_NAD_2_ligand
#    Modification time : Mon Mar 24 22:41:33 2014

@<TRIPOS>MOLECULE
3d4p_NAD_2_ligand
   70    74     1     0     0
SMALL
NO_CHARGES


@<TRIPOS>ATOM
      1 PA         26.6270   31.0020   33.1150 P.3       1 NAD318      0.0000 
      2 O1A        27.9270   31.2640   33.8520 O.co2     1 NAD318      0.0000 
      3 O2A        26.2740   29.5380   32.9520 O.co2     1 NAD318      0.0000 
      4 O5B        25.4350   31.6930   33.9070 O.3       1 NAD318      0.0000 
      5 C5B        24.0780   31.5040   33.5770 C.3       1 NAD318      0.0000 
      6 C4B        23.3330   31.8200   34.8800 C.3       1 NAD318      0.0000 
      7 O4B        21.9630   31.8350   34.5820 O.3       1 NAD318      0.0000 
      8 C3B        23.5190   30.7350   35.9360 C.3       1 NAD318      0.0000 
      9 O3B        23.9740   31.2820   37.1610 O.3       1 NAD318      0.0000 
     10 C2B        22.1050   30.1620   36.0730 C.3       1 NAD318      0.0000 
     11 O2B        21.8180   29.6950   37.3750 O.3       1 NAD318      0.0000 
     12 C1B        21.2520   31.3390   35.6950 C.3       1 NAD318      0.0000 
     13 N9A        19.9000   30.9080   35.2940 N.pl3     1 NAD318      0.0000 
     14 C8A        19.5330   29.9260   34.4110 C.2       1 NAD318      0.0000 
     15 N7A        18.1640   29.8970   34.3790 N.2       1 NAD318      0.0000 
     16 C5A        17.6890   30.8400   35.2200 C.ar      1 NAD318      0.0000 
     17 C6A        16.4120   31.2610   35.5660 C.ar      1 NAD318      0.0000 
     18 N6A        15.3270   30.6010   35.1550 N.pl3     1 NAD318      0.0000 
     19 N1A        16.2570   32.2830   36.4680 N.ar      1 NAD318      0.0000 
     20 C2A        17.3380   32.8970   37.0530 C.ar      1 NAD318      0.0000 
     21 N3A        18.6020   32.4830   36.6830 N.ar      1 NAD318      0.0000 
     22 C4A        18.7670   31.4770   35.7930 C.ar      1 NAD318      0.0000 
     23 O3         26.5850   31.6920   31.6850 O.3       1 NAD318      0.0000 
     24 PN         27.4070   33.0170   31.2480 P.3       1 NAD318      0.0000 
     25 O1N        28.7350   32.6180   30.7250 O.co2     1 NAD318      0.0000 
     26 O2N        27.3020   34.0980   32.2640 O.co2     1 NAD318      0.0000 
     27 O5D        26.5620   33.4070   29.9380 O.3       1 NAD318      0.0000 
     28 C5D        25.2200   33.8950   30.1110 C.3       1 NAD318      0.0000 
     29 C4D        24.5600   34.1910   28.7770 C.3       1 NAD318      0.0000 
     30 O4D        25.2170   35.3210   28.2120 O.3       1 NAD318      0.0000 
     31 C3D        24.6890   33.0560   27.7510 C.3       1 NAD318      0.0000 
     32 O3D        23.5730   33.0660   26.8830 O.3       1 NAD318      0.0000 
     33 C2D        25.8610   33.5280   26.8950 C.3       1 NAD318      0.0000 
     34 O2D        25.9250   32.9310   25.6040 O.3       1 NAD318      0.0000 
     35 C1D        25.5520   35.0110   26.8670 C.3       1 NAD318      0.0000 
     36 N1N        26.6590   35.8690   26.4200 N.pl3     1 NAD318      0.0000 
     37 C2N        26.3200   36.9530   25.6700 C.ar      1 NAD318      0.0000 
     38 C3N        27.2960   37.8140   25.2220 C.ar      1 NAD318      0.0000 
     39 C7N        26.8720   39.0120   24.4280 C.2       1 NAD318      0.0000 
     40 O7N        25.4860   39.2320   24.2420 O.2       1 NAD318      0.0000 
     41 N7N        27.8280   39.7940   23.9600 N.am      1 NAD318      0.0000 
     42 C4N        28.6470   37.5870   25.5550 C.ar      1 NAD318      0.0000 
     43 C5N        28.9780   36.4870   26.3520 C.ar      1 NAD318      0.0000 
     44 C6N        27.9550   35.6420   26.8000 C.ar      1 NAD318      0.0000 
     45 H          23.8505   30.4886   33.3066 H         1 NAD318      0.0000 
     46 H          23.7305   32.1898   32.8254 H         1 NAD318      0.0000 
     47 H          23.6678   32.7478   35.2639 H         1 NAD318      0.0000 
     48 H          24.1402   29.9816   35.5309 H         1 NAD318      0.0000 
     49 H          21.9913   29.4178   35.3081 H         1 NAD318      0.0000 
     50 H          21.2399   32.0228   36.4893 H         1 NAD318      0.0000 
     51 H          20.1204   29.3685   33.9132 H         1 NAD318      0.0000 
     52 H          15.4911   29.7990   34.5807 H         1 NAD318      0.0000 
     53 H          14.4476   30.9679   35.4583 H         1 NAD318      0.0000 
     54 H          17.2133   33.6387   37.7422 H         1 NAD318      0.0000 
     55 H          25.2073   34.8210   30.7103 H         1 NAD318      0.0000 
     56 H          24.5947   33.1596   30.6447 H         1 NAD318      0.0000 
     57 H          23.5198   34.3992   28.9293 H         1 NAD318      0.0000 
     58 H          24.9132   32.1780   28.2002 H         1 NAD318      0.0000 
     59 H          26.7471   33.4044   27.4878 H         1 NAD318      0.0000 
     60 H          24.6800   35.1540   26.2393 H         1 NAD318      0.0000 
     61 H          25.3284   37.1363   25.4324 H         1 NAD318      0.0000 
     62 H          28.7645   39.5308   24.1915 H         1 NAD318      0.0000 
     63 H          27.5284   40.5782   23.4166 H         1 NAD318      0.0000 
     64 H          29.3694   38.2199   25.2164 H         1 NAD318      0.0000 
     65 H          29.9471   36.3023   26.6033 H         1 NAD318      0.0000 
     66 H          28.1924   34.8505   27.4172 H         1 NAD318      0.0000 
     67 H          23.2598   31.9246   37.4385 H         1 NAD318      0.0000 
     68 H          21.7102   30.5210   37.9282 H         1 NAD318      0.0000 
     69 H          23.3935   32.1031   26.6814 H         1 NAD318      0.0000 
     70 H          25.0132   32.5506   25.4494 H         1 NAD318      0.0000 
@<TRIPOS>BOND
     1    2    1 ar   
     2    3    1 ar   
     3    4    1 1    
     4   23    1 1    
     5    5    4 1    
     6    6    5 1    
     7   45    5 1    
     8   46    5 1    
     9    7    6 1    
    10    8    6 1    
    11   47    6 1    
    12   12    7 1    
    13    9    8 1    
    14   10    8 1    
    15   48    8 1    
    16   67    9 1    
    17   11   10 1    
    18   12   10 1    
    19   49   10 1    
    20   68   11 1    
    21   13   12 1    
    22   50   12 1    
    23   14   13 1    
    24   22   13 1    
    25   15   14 2    
    26   51   14 1    
    27   16   15 1    
    28   17   16 ar   
    29   22   16 ar   
    30   18   17 1    
    31   19   17 ar   
    32   52   18 1    
    33   53   18 1    
    34   20   19 ar   
    35   21   20 ar   
    36   54   20 1    
    37   22   21 ar   
    38   24   23 1    
    39   25   24 ar   
    40   26   24 ar   
    41   27   24 1    
    42   28   27 1    
    43   29   28 1    
    44   55   28 1    
    45   56   28 1    
    46   30   29 1    
    47   31   29 1    
    48   57   29 1    
    49   35   30 1    
    50   32   31 1    
    51   33   31 1    
    52   58   31 1    
    53   69   32 1    
    54   34   33 1    
    55   35   33 1    
    56   59   33 1    
    57   70   34 1    
    58   36   35 1    
    59   60   35 1    
    60   37   36 ar   
    61   44   36 ar   
    62   38   37 ar   
    63   61   37 1    
    64   39   38 1    
    65   42   38 ar   
    66   40   39 2    
    67   41   39 am   
    68   62   41 1    
    69   63   41 1    
    70   43   42 ar   
    71   64   42 1    
    72   44   43 ar   
    73   65   43 1    
    74   66   44 1    
@<TRIPOS>SUBSTRUCTURE
     1 NAD318      1 GROUP   
@<TRIPOS>SET

