#    Name: 1rdt_L79_1_INTS_M
#    Modification time : Tue Mar 25 00:31:10 2014

@<TRIPOS>MOLECULE
1rdt_L79_1_INTS_M
   83     0     9     0     0
SMALL
NO_CHARGES


@<TRIPOS>ATOM
      1 CA         10.2250   34.4665   44.9015 C.3       3 GLC5        0.0000 
      2 CA         10.7170   36.2230   45.5440 C.3       9 GLL5        0.0000 
      3 CA          9.7330   32.7100   44.2590 C.3       6 GLP5        0.0000 
      4 CA         11.2250   36.3220   49.0660 C.3       3 GLC5        0.0000 
      5 CA         11.5890   35.0460   47.4750 C.3       9 GLL5        0.0000 
      6 CA         10.8610   37.5980   50.6570 C.3       6 GLP5        0.0000 
      7 CA         12.7170   36.6350   47.4695 C.3       3 GLC5        0.0000 
      8 CA         13.8450   38.2240   47.4640 C.3       6 GLP5        0.0000 
      9 CA         13.7485   34.0610   49.0745 C.3       3 GLC5        0.0000 
     10 CA         12.1340   33.9130   47.9100 C.3       9 GLL5        0.0000 
     11 CA         15.3630   34.2090   50.2390 C.3       6 GLP5        0.0000 
     12 NZ         11.8315   31.3530   50.2390 N.4       2 LYC4        0.0000 
     13 NZ         12.6700   32.4120   49.6010 N.4       8 LYL4        0.0000 
     14 NZ         11.8680   29.4520   51.4070 N.4       5 LYP4        0.0000 
     15 N          11.8315   31.3530   50.2390 N.am      1 SEC2        0.0000 
     16 N          12.6700   32.4120   49.6010 N.am      7 SEL2        0.0000 
     17 N          10.9930   30.2940   50.8770 N.am      4 SEP2        0.0000 
     18 N          12.9135   30.9965   50.3640 N.am      1 SEC2        0.0000 
     19 N          13.1570   29.5810   51.1270 N.am      4 SEP2        0.0000 
     20 N          11.0235   33.5655   51.2955 N.am      1 SEC2        0.0000 
     21 N          11.2670   33.9590   50.1300 N.am      7 SEL2        0.0000 
     22 N          10.7800   33.1720   52.4610 N.am      4 SEP2        0.0000 
     23 CA         13.2885   37.3270   44.4995 C.3       3 GLC5        0.0000 
     24 CA         13.2600   35.9040   42.8630 C.3       9 GLL5        0.0000 
     25 CA         13.3170   38.7500   46.1360 C.3       6 GLP5        0.0000 
     26 CA          3.1710   40.0245   40.5500 C.3       3 GLC5        0.0000 
     27 CA          4.7620   39.1060   41.1670 C.3       9 GLL5        0.0000 
     28 CA          1.5800   40.9430   39.9330 C.3       6 GLP5        0.0000 
     29 CA          5.8440   42.2800   43.0940 C.3       3 GLC5        0.0000 
     30 CA          6.2980   40.4060   42.4540 C.3       9 GLL5        0.0000 
     31 CA          5.3900   44.1540   43.7340 C.3       6 GLP5        0.0000 
     32 CA          6.9995   39.4305   44.1700 C.3       3 GLC5        0.0000 
     33 CA          7.7010   38.4550   45.8860 C.3       6 GLP5        0.0000 
     34 CA          5.6795   41.9420   40.9610 C.3       3 GLC5        0.0000 
     35 CA          5.0610   43.4780   39.4680 C.3       6 GLP5        0.0000 
     36 CA          6.6460   40.4055   38.5270 C.3       3 GLC5        0.0000 
     37 CA          6.8620   39.7600   40.1760 C.3       9 GLL5        0.0000 
     38 CA          6.4300   41.0510   36.8780 C.3       6 GLP5        0.0000 
     39 CA          5.9615   41.6190   39.8220 C.3       3 GLC5        0.0000 
     40 CA          4.3470   37.3705   44.6005 C.3       3 GLC5        0.0000 
     41 CA          4.0710   36.2260   43.0520 C.3       9 GLL5        0.0000 
     42 CA          4.6230   38.5150   46.1490 C.3       6 GLP5        0.0000 
     43 CA          4.1460   34.2020   44.0185 C.3       3 GLC5        0.0000 
     44 CA          4.2210   32.1780   44.9850 C.3       6 GLP5        0.0000 
     45 CA          2.6095   35.2875   43.4775 C.3       3 GLC5        0.0000 
     46 CA          1.1480   34.3490   43.9030 C.3       6 GLP5        0.0000 
     47 CA          2.5715   38.6380   40.6750 C.3       3 GLC5        0.0000 
     48 CA          4.1410   37.7090   41.1370 C.3       9 GLL5        0.0000 
     49 CA          1.0020   39.5670   40.2130 C.3       6 GLP5        0.0000 
     50 CA          2.8890   34.4765   40.6915 C.3       3 GLC5        0.0000 
     51 CA          4.6760   35.4050   40.8430 C.3       9 GLL5        0.0000 
     52 CA          1.1020   33.5480   40.5400 C.3       6 GLP5        0.0000 
     53 CA          4.7530   33.4870   40.5360 C.3       3 GLC5        0.0000 
     54 CA          4.8300   31.5690   40.2290 C.3       6 GLP5        0.0000 
     55 CA          6.3950   35.3470   39.6945 C.3       3 GLC5        0.0000 
     56 CA          8.1140   35.2890   38.5460 C.3       6 GLP5        0.0000 
     57 CA          9.3230   37.3995   45.3925 C.3       3 GLC5        0.0000 
     58 CA         11.1730   36.4650   44.2540 C.3       9 GLL5        0.0000 
     59 CA         12.2643   37.3000   45.9982 C.3       3 GLC5        0.0000 
     60 CA         14.0715   34.5905   43.9933 C.3       3 GLC5        0.0000 
     61 CA         12.4220   35.8680   44.1240 C.3       9 GLL5        0.0000 
     62 CA         15.3020   33.2950   44.4930 C.3       6 GLP5        0.0000 
     63 CA          9.9743   34.7052   48.4077 C.3       3 GLC5        0.0000 
     64 CA          8.0870   34.9310   49.1230 C.3       6 GLP5        0.0000 
     65 CA         11.0514   33.3851   46.4135 C.3       3 GLC5        0.0000 
     66 CA         10.2120   32.1830   45.4590 C.3       6 GLP5        0.0000 
     67 CA         12.2266   37.7249   44.9018 C.3       3 GLC5        0.0000 
     68 CA         10.4750   37.2330   43.1460 C.3       9 GLL5        0.0000 
     69 CA         12.1732   38.7362   40.8405 C.3       3 GLC5        0.0000 
     70 CA         11.4110   37.5540   41.9780 C.3       9 GLL5        0.0000 
     71 CA         12.3550   40.3960   39.8480 C.3       6 GLP5        0.0000 
     72 CA         14.4880   35.5242   40.9363 C.3       3 GLC5        0.0000 
     73 CA         12.5720   36.5990   41.6880 C.3       9 GLL5        0.0000 
     74 CA         16.0600   34.7970   39.5970 C.3       6 GLP5        0.0000 
     75 CA         12.2235   34.4898   41.5667 C.3       3 GLC5        0.0000 
     76 CA         11.5310   32.7280   40.8580 C.3       6 GLP5        0.0000 
     77 CA          3.5569   36.4530   39.5875 C.3       3 GLC5        0.0000 
     78 CA          2.5160   36.6350   38.0160 C.3       6 GLP5        0.0000 
     79 CA          8.3852   37.4865   44.4181 C.3       3 GLC5        0.0000 
     80 CA          8.3940   35.8850   42.9320 C.3       9 GLL5        0.0000 
     81 CA          7.8374   35.6879   40.6003 C.3       3 GLC5        0.0000 
     82 CA          7.4376   37.8105   44.0769 C.3       3 GLC5        0.0000 
     83 CA          6.3590   36.8020   42.1430 C.3       9 GLL5        0.0000 
@<TRIPOS>BOND
@<TRIPOS>SUBSTRUCTURE
     1 SEC2       15 GROUP        1 X    SEC  0     ROOT SEC X 2
     2 LYC4       12 GROUP        1 X    LYC  0     **** LYC X 4
     3 GLC5        1 GROUP        1 X    GLC  0     **** GLC X 6
     4 SEP2       17 GROUP        1 Y    SEP  0     ROOT SEP Y 9
     5 LYP4       14 GROUP        1 Y    LYP  0     **** LYP Y 11
     6 GLP5        3 GROUP        1 Y    GLP  0     **** GLP Y 13
     7 SEL2       16 GROUP        1 Z    SEL  0     ROOT SEL Z 16
     8 LYL4       13 GROUP        1 Z    LYL  0     **** LYL Z 18
     9 GLL5        2 GROUP        1 Z    GLL  0     **** GLL Z 20
@<TRIPOS>SET

