#    Name: 1rdt_L79_1_ligand
#    Modification time : Tue Mar 25 00:31:10 2014

@<TRIPOS>MOLECULE
1rdt_L79_1_ligand
   57    60     1     0     0
SMALL
NO_CHARGES


@<TRIPOS>ATOM
      1 C          10.7170   36.2230   45.5440 C.3       1 L79463      0.0000 
      2 C1         11.7060   35.4770   46.1770 C.3       1 L79463      0.0000 
      3 O          12.7460   35.2610   45.3090 O.3       1 L79463      0.0000 
      4 C2         12.4220   35.8680   44.1240 C.3       1 L79463      0.0000 
      5 C3         11.1730   36.4650   44.2540 C.3       1 L79463      0.0000 
      6 C4         11.5890   35.0460   47.4750 C.2       1 L79463      0.0000 
      7 C5         12.1340   33.9130   47.9100 C.2       1 L79463      0.0000 
      8 C6         12.0190   33.4180   49.3210 C.2       1 L79463      0.0000 
      9 O1         12.6700   32.4120   49.6010 O.co2     1 L79463      0.0000 
     10 O7         11.2670   33.9590   50.1300 O.co2     1 L79463      0.0000 
     11 C8         10.4750   37.2330   43.1460 C.2       1 L79463      0.0000 
     12 C9         11.4110   37.5540   41.9780 C.2       1 L79463      0.0000 
     13 C10        12.5720   36.5990   41.6880 C.2       1 L79463      0.0000 
     14 C11        13.2600   35.9040   42.8630 C.2       1 L79463      0.0000 
     15 C12         9.0150   37.0690   42.7910 C.ar      1 L79463      0.0000 
     16 C13         8.2720   38.0890   42.3230 C.ar      1 L79463      0.0000 
     17 C14         6.9700   37.9980   41.9940 C.ar      1 L79463      0.0000 
     18 C15         6.2530   39.2330   41.4750 C.3       1 L79463      0.0000 
     19 C16         4.7620   39.1060   41.1670 C.3       1 L79463      0.0000 
     20 C17         6.2980   40.4060   42.4540 C.3       1 L79463      0.0000 
     21 C18         6.8620   39.7600   40.1760 C.3       1 L79463      0.0000 
     22 C19         6.3590   36.8020   42.1430 C.ar      1 L79463      0.0000 
     23 C20         4.8980   36.5650   41.8130 C.3       1 L79463      0.0000 
     24 C21         4.0710   36.2260   43.0520 C.3       1 L79463      0.0000 
     25 C22         4.1410   37.7090   41.1370 C.3       1 L79463      0.0000 
     26 C23         4.6760   35.4050   40.8430 C.3       1 L79463      0.0000 
     27 C24         7.0960   35.7750   42.6110 C.ar      1 L79463      0.0000 
     28 C25         8.3940   35.8850   42.9320 C.ar      1 L79463      0.0000 
     29 H          10.5350   37.1684   46.0807 H         1 L79463      0.0000 
     30 H           9.7617   35.6733   45.5269 H         1 L79463      0.0000 
     31 H          12.3240   36.7142   46.5946 H         1 L79463      0.0000 
     32 H          11.7748   34.6525   43.6818 H         1 L79463      0.0000 
     33 H          11.8214   37.6722   44.7157 H         1 L79463      0.0000 
     34 H          11.0372   35.6546   48.1458 H         1 L79463      0.0000 
     35 H          12.6901   33.2804   47.2821 H         1 L79463      0.0000 
     36 H          11.2717   38.3448   41.4337 H         1 L79463      0.0000 
     37 H          12.8647   36.4387   40.7757 H         1 L79463      0.0000 
     38 H          14.1199   35.5369   42.8016 H         1 L79463      0.0000 
     39 H           8.7519   39.0431   42.2036 H         1 L79463      0.0000 
     40 H           4.5616   39.6019   40.1799 H         1 L79463      0.0000 
     41 H           4.1937   39.7283   41.9087 H         1 L79463      0.0000 
     42 H           3.9578   37.4271   40.0668 H         1 L79463      0.0000 
     43 H           3.1157   37.7687   41.5881 H         1 L79463      0.0000 
     44 H           6.6208   34.8280   42.7313 H         1 L79463      0.0000 
     45 H           8.9185   35.0588   43.2884 H         1 L79463      0.0000 
     46 H           7.2366   40.6874   42.6535 H         1 L79463      0.0000 
     47 H           5.8216   41.2083   42.0944 H         1 L79463      0.0000 
     48 H           5.8686   40.1773   43.3277 H         1 L79463      0.0000 
     49 H           7.8233   40.0101   40.2912 H         1 L79463      0.0000 
     50 H           6.8218   39.0797   39.4442 H         1 L79463      0.0000 
     51 H           6.3848   40.5744   39.8457 H         1 L79463      0.0000 
     52 H           4.4021   35.3979   43.5044 H         1 L79463      0.0000 
     53 H           4.0986   36.9610   43.7295 H         1 L79463      0.0000 
     54 H           3.1092   36.0718   42.8258 H         1 L79463      0.0000 
     55 H           5.1408   35.5563   39.9706 H         1 L79463      0.0000 
     56 H           5.0193   34.5413   41.2121 H         1 L79463      0.0000 
     57 H           3.7061   35.2717   40.6392 H         1 L79463      0.0000 
@<TRIPOS>BOND
     1    2    1 1    
     2    5    1 1    
     3   29    1 1    
     4   30    1 1    
     5    3    2 1    
     6    6    2 1    
     7   31    2 1    
     8    4    3 1    
     9    5    4 1    
    10   14    4 1    
    11   32    4 1    
    12   11    5 1    
    13   33    5 1    
    14    7    6 2    
    15   34    6 1    
    16    8    7 1    
    17   35    7 1    
    18    9    8 ar   
    19   10    8 ar   
    20   12   11 2    
    21   15   11 1    
    22   13   12 1    
    23   36   12 1    
    24   14   13 2    
    25   37   13 1    
    26   38   14 1    
    27   16   15 ar   
    28   28   15 ar   
    29   17   16 ar   
    30   39   16 1    
    31   18   17 1    
    32   22   17 ar   
    33   19   18 1    
    34   20   18 1    
    35   21   18 1    
    36   25   19 1    
    37   40   19 1    
    38   41   19 1    
    39   46   20 1    
    40   47   20 1    
    41   48   20 1    
    42   49   21 1    
    43   50   21 1    
    44   51   21 1    
    45   23   22 1    
    46   27   22 ar   
    47   24   23 1    
    48   25   23 1    
    49   26   23 1    
    50   52   24 1    
    51   53   24 1    
    52   54   24 1    
    53   42   25 1    
    54   43   25 1    
    55   55   26 1    
    56   56   26 1    
    57   57   26 1    
    58   28   27 ar   
    59   44   27 1    
    60   45   28 1    
@<TRIPOS>SUBSTRUCTURE
     1 L79463      1 GROUP   
@<TRIPOS>SET

