#    Name: 1n77_ATP_1_INTS_M
#    Modification time : Mon Mar 24 17:47:21 2014

@<TRIPOS>MOLECULE
1n77_ATP_1_INTS_M
   58     0     9     0     0
SMALL
NO_CHARGES


@<TRIPOS>ATOM
      1 NZ         41.3500   80.6310   60.0410 N.4       2 LYC4        0.0000 
      2 NZ         40.2500   79.5620   59.9690 N.4       8 LYL4        0.0000 
      3 NZ         42.9640   81.4950   61.3250 N.4       5 LYP4        0.0000 
      4 N          41.4670   79.9665   60.9765 N.am      1 SEC2        0.0000 
      5 N          40.2500   79.5620   59.9690 N.am      7 SEL2        0.0000 
      6 N          42.6840   80.3710   61.9840 N.am      4 SEP2        0.0000 
      7 N          41.3500   80.6310   60.0410 N.am      1 SEC2        0.0000 
      8 N          42.4500   81.7000   60.1130 N.am      4 SEP2        0.0000 
      9 NZ         42.0270   81.0185   59.0750 N.4       2 LYC4        0.0000 
     10 NZ         41.6040   80.3370   58.0370 N.4       8 LYL4        0.0000 
     11 N          42.9900   80.2985   57.3110 N.am      1 SEC2        0.0000 
     12 N          41.6040   80.3370   58.0370 N.am      7 SEL2        0.0000 
     13 N          44.3760   80.2600   56.5850 N.am      4 SEP2        0.0000 
     14 N          42.0270   81.0185   59.0750 N.am      1 SEC2        0.0000 
     15 N          42.3060   77.8135   53.4925 N.am      1 SEC2        0.0000 
     16 N          40.9870   77.1160   53.5290 N.am      7 SEL2        0.0000 
     17 N          43.6250   78.5110   53.4560 N.am      4 SEP2        0.0000 
     18 CA         40.6955   77.5080   51.6825 C.3       3 GLC5        0.0000 
     19 CA         38.5570   77.2210   52.0860 C.3       9 GLL5        0.0000 
     20 CA         42.8340   77.7950   51.2790 C.3       6 GLP5        0.0000 
     21 CA         39.2805   75.5345   51.6060 C.3       3 GLC5        0.0000 
     22 CA         40.0040   73.8480   51.1260 C.3       6 GLP5        0.0000 
     23 CA         37.4725   75.2770   51.7180 C.3       3 GLC5        0.0000 
     24 CA         37.1960   77.3840   51.4400 C.3       9 GLL5        0.0000 
     25 CA         37.7490   73.1700   51.9960 C.3       6 GLP5        0.0000 
     26 CA         35.8440   76.3630   50.3680 C.3       3 GLC5        0.0000 
     27 CA         34.4920   75.3420   49.2960 C.3       6 GLP5        0.0000 
     28 CA         35.5805   77.6795   49.9335 C.3       3 GLC5        0.0000 
     29 CA         36.6400   78.8020   51.5350 C.3       9 GLL5        0.0000 
     30 CA         34.5210   76.5570   48.3320 C.3       6 GLP5        0.0000 
     31 CA         34.5945   80.7530   52.8805 C.3       3 GLC5        0.0000 
     32 CA         35.6500   78.8260   52.6970 C.3       9 GLL5        0.0000 
     33 CA         33.5390   82.6800   53.0640 C.3       6 GLP5        0.0000 
     34 N          33.2360   79.5230   51.7035 N.am      1 SEC2        0.0000 
     35 N          34.4580   79.4760   52.3030 N.am      7 SEL2        0.0000 
     36 N          32.0140   79.5700   51.1040 N.am      4 SEP2        0.0000 
     37 N          34.6345   80.8885   52.8515 N.am      1 SEC2        0.0000 
     38 N          34.8110   82.3010   53.4000 N.am      4 SEP2        0.0000 
     39 CA         33.1960   73.3630   58.1740 C.3       3 GLC5        0.0000 
     40 CA         33.7060   75.1260   56.9300 C.3       9 GLL5        0.0000 
     41 CA         32.6860   71.6000   59.4180 C.3       6 GLP5        0.0000 
     42 CA         33.7210   73.5140   54.7275 C.3       3 GLC5        0.0000 
     43 CA         32.4170   74.8720   55.0250 C.3       9 GLL5        0.0000 
     44 CA         35.0250   72.1560   54.4300 C.3       6 GLP5        0.0000 
     45 CA         32.1550   76.7670   54.1985 C.3       3 GLC5        0.0000 
     46 CA         31.8930   78.6620   53.3720 C.3       6 GLP5        0.0000 
     47 CA         31.5775   75.8990   55.9110 C.3       3 GLC5        0.0000 
     48 CA         30.7380   76.9260   56.7970 C.3       6 GLP5        0.0000 
     49 CA         33.9255   75.8445   52.6610 C.3       3 GLC5        0.0000 
     50 CA         34.2540   76.0780   54.8110 C.3       9 GLL5        0.0000 
     51 CA         33.5970   75.6110   50.5110 C.3       6 GLP5        0.0000 
     52 CA         33.0735   77.3700   54.0915 C.3       3 GLC5        0.0000 
     53 CA         34.5403   76.8470   51.6497 C.3       3 GLC5        0.0000 
     54 CA         35.3170   77.3400   52.8800 C.3       9 GLL5        0.0000 
     55 CA         33.6883   78.3725   53.0803 C.3       3 GLC5        0.0000 
     56 CA         34.6131   73.9756   55.0517 C.3       3 GLC5        0.0000 
     57 CA         34.5910   75.8990   56.1420 C.3       9 GLL5        0.0000 
     58 CA         32.4696   76.3606   56.2353 C.3       3 GLC5        0.0000 
@<TRIPOS>BOND
@<TRIPOS>SUBSTRUCTURE
     1 SEC2        4 GROUP        1 X    SEC  0     ROOT SEC X 2
     2 LYC4        1 GROUP        1 X    LYC  0     **** LYC X 4
     3 GLC5       18 GROUP        1 X    GLC  0     **** GLC X 6
     4 SEP2        6 GROUP        1 Y    SEP  0     ROOT SEP Y 9
     5 LYP4        3 GROUP        1 Y    LYP  0     **** LYP Y 11
     6 GLP5       20 GROUP        1 Y    GLP  0     **** GLP Y 13
     7 SEL2        5 GROUP        1 Z    SEL  0     ROOT SEL Z 16
     8 LYL4        2 GROUP        1 Z    LYL  0     **** LYL Z 18
     9 GLL5       19 GROUP        1 Z    GLL  0     **** GLL Z 20
@<TRIPOS>SET

