#    Name: 1n77_ATP_1_ligand
#    Modification time : Mon Mar 24 17:47:21 2014

@<TRIPOS>MOLECULE
1n77_ATP_1_ligand
   43    45     1     0     0
SMALL
NO_CHARGES


@<TRIPOS>ATOM
      1 PG         40.3070   79.6550   58.4500 P.3       1 ATP600      0.0000 
      2 O1G        39.1220   80.4750   57.9540 O.co2     1 ATP600      0.0000 
      3 O2G        40.2500   79.5620   59.9690 O.co2     1 ATP600      0.0000 
      4 O3G        41.6040   80.3370   58.0370 O.co2     1 ATP600      0.0000 
      5 PB         38.9690   77.6240   56.9490 P.3       1 ATP600      0.0000 
      6 O1B        38.1810   78.8090   56.5120 O.co2     1 ATP600      0.0000 
      7 O2B        38.3120   76.5360   57.7210 O.co2     1 ATP600      0.0000 
      8 O3B        40.2560   78.1510   57.8090 O.3       1 ATP600      0.0000 
      9 PA         39.9010   77.8170   54.2660 P.3       1 ATP600      0.0000 
     10 O1A        40.0870   79.2350   54.6760 O.co2     1 ATP600      0.0000 
     11 O2A        40.9870   77.1160   53.5290 O.co2     1 ATP600      0.0000 
     12 O3A        39.6160   76.9410   55.6150 O.3       1 ATP600      0.0000 
     13 O5'        38.5470   77.7080   53.4280 O.3       1 ATP600      0.0000 
     14 C5'        38.5570   77.2210   52.0860 C.3       1 ATP600      0.0000 
     15 C4'        37.1960   77.3840   51.4400 C.3       1 ATP600      0.0000 
     16 O4'        36.2410   76.5450   52.1500 O.3       1 ATP600      0.0000 
     17 C3'        36.6400   78.8020   51.5350 C.3       1 ATP600      0.0000 
     18 O3'        36.3760   79.5210   50.3320 O.3       1 ATP600      0.0000 
     19 C2'        35.6500   78.8260   52.6970 C.3       1 ATP600      0.0000 
     20 O2'        34.4580   79.4760   52.3030 O.3       1 ATP600      0.0000 
     21 C1'        35.3170   77.3400   52.8800 C.3       1 ATP600      0.0000 
     22 N9         35.2520   76.8630   54.2700 N.pl3     1 ATP600      0.0000 
     23 C8         36.1330   77.1020   55.2970 C.2       1 ATP600      0.0000 
     24 N7         35.7830   76.5500   56.4370 N.2       1 ATP600      0.0000 
     25 C5         34.5910   75.8990   56.1420 C.ar      1 ATP600      0.0000 
     26 C6         33.7060   75.1260   56.9300 C.ar      1 ATP600      0.0000 
     27 N6         33.8900   74.8770   58.2310 N.pl3     1 ATP600      0.0000 
     28 N1         32.6080   74.6150   56.3250 N.ar      1 ATP600      0.0000 
     29 C2         32.4170   74.8720   55.0250 C.ar      1 ATP600      0.0000 
     30 N3         33.1680   75.5860   54.1850 N.ar      1 ATP600      0.0000 
     31 C4         34.2540   76.0780   54.8110 C.ar      1 ATP600      0.0000 
     32 H          38.8252   76.1524   52.0470 H         1 ATP600      0.0000 
     33 H          39.2930   77.7601   51.4671 H         1 ATP600      0.0000 
     34 H          37.2381   77.0956   50.4129 H         1 ATP600      0.0000 
     35 H          37.5883   79.3638   52.0467 H         1 ATP600      0.0000 
     36 H          36.1016   79.1829   53.5464 H         1 ATP600      0.0000 
     37 H          34.3048   77.1919   52.4207 H         1 ATP600      0.0000 
     38 H          36.9602   77.6523   55.1574 H         1 ATP600      0.0000 
     39 H          33.1866   74.3235   58.6769 H         1 ATP600      0.0000 
     40 H          34.7145   75.2667   58.6413 H         1 ATP600      0.0000 
     41 H          31.5007   74.4256   54.5840 H         1 ATP600      0.0000 
     42 H          36.6978   80.4508   50.5105 H         1 ATP600      0.0000 
     43 H          33.8694   79.4489   53.1109 H         1 ATP600      0.0000 
@<TRIPOS>BOND
     1    2    1 ar   
     2    3    1 ar   
     3    4    1 ar   
     4    8    1 1    
     5    6    5 ar   
     6    7    5 ar   
     7    8    5 1    
     8   12    5 1    
     9   10    9 ar   
    10   11    9 ar   
    11   12    9 1    
    12   13    9 1    
    13   14   13 1    
    14   15   14 1    
    15   32   14 1    
    16   33   14 1    
    17   16   15 1    
    18   17   15 1    
    19   34   15 1    
    20   21   16 1    
    21   18   17 1    
    22   19   17 1    
    23   35   17 1    
    24   42   18 1    
    25   20   19 1    
    26   21   19 1    
    27   36   19 1    
    28   43   20 1    
    29   22   21 1    
    30   37   21 1    
    31   23   22 1    
    32   31   22 1    
    33   24   23 2    
    34   38   23 1    
    35   25   24 1    
    36   26   25 ar   
    37   31   25 ar   
    38   27   26 1    
    39   28   26 ar   
    40   39   27 1    
    41   40   27 1    
    42   29   28 ar   
    43   30   29 ar   
    44   41   29 1    
    45   31   30 ar   
@<TRIPOS>SUBSTRUCTURE
     1 ATP600      1 GROUP   
@<TRIPOS>SET

