#    Name: 3rn8_RN8_1_INTS_M
#    Modification time : Mon Apr  7 20:28:08 2014

@<TRIPOS>MOLECULE
3rn8_RN8_1_INTS_M
   69     0     6     0     0
SMALL
NO_CHARGES


@<TRIPOS>ATOM
      1 CA         64.4125   26.1320   43.1745 C.3       2 GLC5        0.0000 
      2 CA         62.4800   26.0110   42.7040 C.3       6 GLL5        0.0000 
      3 CA         66.3450   26.2530   43.6450 C.3       4 GLP5        0.0000 
      4 CA         62.7605   25.8715   45.4825 C.3       2 GLC5        0.0000 
      5 CA         63.2720   23.9930   45.0110 C.3       6 GLL5        0.0000 
      6 CA         62.2490   27.7500   45.9540 C.3       4 GLP5        0.0000 
      7 CA         64.8085   25.1230   44.3280 C.3       2 GLC5        0.0000 
      8 N          60.0945   23.6445   39.1110 N.am      1 SEC2        0.0000 
      9 N          61.1690   23.2570   40.0130 N.am      5 SEL2        0.0000 
     10 N          59.0200   24.0320   38.2090 N.am      3 SEP2        0.0000 
     11 CA         61.6570   19.0930   47.2075 C.3       2 GLC5        0.0000 
     12 CA         62.9980   19.9830   45.9720 C.3       6 GLL5        0.0000 
     13 CA         60.3160   18.2030   48.4430 C.3       4 GLP5        0.0000 
     14 CA         57.7735   26.2970   43.1620 C.3       2 GLC5        0.0000 
     15 CA         59.6920   26.4010   42.6860 C.3       6 GLL5        0.0000 
     16 CA         55.8550   26.1930   43.6380 C.3       4 GLP5        0.0000 
     17 CA         59.4515   26.5475   45.5355 C.3       2 GLC5        0.0000 
     18 CA         58.9540   28.3840   45.0820 C.3       6 GLL5        0.0000 
     19 CA         59.9490   24.7110   45.9890 C.3       4 GLP5        0.0000 
     20 CA         57.4045   27.2885   44.3600 C.3       2 GLC5        0.0000 
     21 CA         59.3365   30.9265   40.3955 C.3       2 GLC5        0.0000 
     22 CA         60.3970   30.0660   42.1600 C.3       6 GLL5        0.0000 
     23 CA         58.2760   31.7870   38.6310 C.3       4 GLP5        0.0000 
     24 N          61.9995   28.8185   39.1565 N.am      1 SEC2        0.0000 
     25 N          61.0150   29.2310   40.0560 N.am      5 SEL2        0.0000 
     26 N          62.9840   28.4060   38.2570 N.am      3 SEP2        0.0000 
     27 N          61.4790   32.6245   40.8980 N.am      1 SEC2        0.0000 
     28 N          61.6770   31.3410   40.6540 N.am      5 SEL2        0.0000 
     29 N          61.2810   33.9080   41.1420 N.am      3 SEP2        0.0000 
     30 CA         60.5865   33.2265   47.2865 C.3       2 GLC5        0.0000 
     31 CA         59.3200   32.3970   46.0460 C.3       6 GLL5        0.0000 
     32 CA         61.8530   34.0560   48.5270 C.3       4 GLP5        0.0000 
     33 CA         60.8300   25.1072   44.3314 C.3       2 GLC5        0.0000 
     34 CA         61.6400   24.8860   42.6300 C.3       6 GLL5        0.0000 
     35 CA         57.9892   32.0340   47.4905 C.3       2 GLC5        0.0000 
     36 CA         58.4590   31.3490   45.3800 C.3       6 GLL5        0.0000 
     37 CA         57.0890   32.1950   49.2680 C.3       4 GLP5        0.0000 
     38 CA         58.4502   33.7720   45.2370 C.3       2 GLC5        0.0000 
     39 CA         58.0110   35.6710   44.7610 C.3       4 GLP5        0.0000 
     40 CA         57.3960   30.3222   43.4563 C.3       2 GLC5        0.0000 
     41 CA         55.9720   29.6530   42.0980 C.3       4 GLP5        0.0000 
     42 CA         64.8347   22.1025   43.4162 C.3       2 GLC5        0.0000 
     43 CA         63.0610   21.7630   44.1760 C.3       6 GLL5        0.0000 
     44 CA         66.2370   22.7900   42.1030 C.3       4 GLP5        0.0000 
     45 CA         64.2390   20.3645   47.4688 C.3       2 GLC5        0.0000 
     46 CA         63.8040   21.0670   45.2830 C.3       6 GLL5        0.0000 
     47 CA         65.0770   20.2040   49.3100 C.3       4 GLP5        0.0000 
     48 CA         63.8990   18.6305   45.2157 C.3       2 GLC5        0.0000 
     49 CA         64.3970   16.7360   44.8040 C.3       4 GLP5        0.0000 
     50 CA         63.0147   21.1000   40.6033 C.3       2 GLC5        0.0000 
     51 CA         61.7790   22.3530   42.0920 C.3       6 GLL5        0.0000 
     52 CA         63.9470   20.5450   38.7200 C.3       4 GLP5        0.0000 
     53 CA         64.1598   22.2225   42.2948 C.3       2 GLC5        0.0000 
     54 CA         64.3989   23.1579   42.8716 C.3       2 GLC5        0.0000 
     55 CA         62.7850   23.1200   44.0100 C.3       6 GLL5        0.0000 
     56 CA         61.2549   24.1184   44.8146 C.3       2 GLC5        0.0000 
     57 CA         62.0836   26.7630   44.3092 C.3       2 GLC5        0.0000 
     58 CA         61.1795   27.3580   44.3093 C.3       2 GLC5        0.0000 
     59 CA         60.5280   27.5310   42.6430 C.3       6 GLL5        0.0000 
     60 CA         62.3901   27.3113   40.9810 C.3       2 GLC5        0.0000 
     61 CA         61.9130   27.3210   42.6940 C.3       6 GLL5        0.0000 
     62 CA         63.4180   27.5240   39.2910 C.3       4 GLP5        0.0000 
     63 CA         60.0295   25.8385   44.3268 C.3       2 GLC5        0.0000 
     64 CA         59.5310   25.3188   40.9639 C.3       2 GLC5        0.0000 
     65 CA         58.7450   24.9390   39.2630 C.3       4 GLP5        0.0000 
     66 CA         60.8034   28.2475   45.1109 C.3       2 GLC5        0.0000 
     67 CA         60.0980   28.9240   42.8240 C.3       6 GLL5        0.0000 
     68 CA         57.6649   29.1990   43.1829 C.3       2 GLC5        0.0000 
     69 CA         58.0445   30.2125   42.3240 C.3       2 GLC5        0.0000 
@<TRIPOS>BOND
@<TRIPOS>SUBSTRUCTURE
     1 SEC2        8 GROUP        1 X    SEC  0     ROOT SEC X 2
     2 GLC5        1 GROUP        1 X    GLC  0     **** GLC X 6
     3 SEP2       10 GROUP        1 Y    SEP  0     ROOT SEP Y 9
     4 GLP5        3 GROUP        1 Y    GLP  0     **** GLP Y 13
     5 SEL2        9 GROUP        1 Z    SEL  0     ROOT SEL Z 16
     6 GLL5        2 GROUP        1 Z    GLL  0     **** GLL Z 20
@<TRIPOS>SET

