#    Name: 3rn8_RN8_1_ligand
#    Modification time : Mon Apr  7 20:28:09 2014

@<TRIPOS>MOLECULE
3rn8_RN8_1_ligand
   44    46     1     0     0
SMALL
NO_CHARGES


@<TRIPOS>ATOM
      1 C4         61.9130   27.3210   42.6940 C.ar      1 RN8281      0.0000 
      2 C5         60.2440   25.1060   42.6570 C.ar      1 RN8281      0.0000 
      3 C6         62.4800   26.0110   42.7040 C.ar      1 RN8281      0.0000 
      4 C7         58.4590   31.3490   45.3800 C.3       1 RN8281      0.0000 
      5 C8         63.8040   21.0670   45.2830 C.3       1 RN8281      0.0000 
      6 C10        63.2720   23.9930   45.0110 C.1       1 RN8281      0.0000 
      7 C13        59.1810   30.6340   44.2490 C.2       1 RN8281      0.0000 
      8 C15        59.4250   29.2880   44.0830 C.2       1 RN8281      0.0000 
      9 C17        60.0980   28.9240   42.8240 C.2       1 RN8281      0.0000 
     10 C20        61.7790   22.3530   42.0920 C.2       1 RN8281      0.0000 
     11 C21        61.1160   30.2180   40.8210 C.2       1 RN8281      0.0000 
     12 C22        61.0620   22.2490   40.7480 C.2       1 RN8281      0.0000 
     13 O28        61.1690   23.2570   40.0130 O.co2     1 RN8281      0.0000 
     14 O26        60.5360   21.1260   40.5010 O.co2     1 RN8281      0.0000 
     15 S30        62.3860   20.9570   42.8810 S.3       1 RN8281      0.0000 
     16 C14        63.0610   21.7630   44.1760 C.2       1 RN8281      0.0000 
     17 C2         62.9980   19.9830   45.9720 C.3       1 RN8281      0.0000 
     18 C18        62.0930   23.4950   42.7700 C.2       1 RN8281      0.0000 
     19 C16        62.7850   23.1200   44.0100 C.2       1 RN8281      0.0000 
     20 N24        63.7120   24.6940   45.8290 N.1       1 RN8281      0.0000 
     21 C12        61.6400   24.8860   42.6300 C.ar      1 RN8281      0.0000 
     22 C11        60.5280   27.5310   42.6430 C.ar      1 RN8281      0.0000 
     23 C3         59.6920   26.4010   42.6860 C.ar      1 RN8281      0.0000 
     24 C9         58.9540   28.3840   45.0820 C.1       1 RN8281      0.0000 
     25 N23        58.5430   27.6420   45.8780 N.1       1 RN8281      0.0000 
     26 C19        60.3970   30.0660   42.1600 C.2       1 RN8281      0.0000 
     27 O27        61.0150   29.2310   40.0560 O.co2     1 RN8281      0.0000 
     28 O25        61.6770   31.3410   40.6540 O.co2     1 RN8281      0.0000 
     29 S29        59.8370   31.4780   42.9400 S.3       1 RN8281      0.0000 
     30 C1         59.3200   32.3970   46.0460 C.3       1 RN8281      0.0000 
     31 H          62.5531   28.1334   42.7257 H         1 RN8281      0.0000 
     32 H          59.6089   24.2872   42.6553 H         1 RN8281      0.0000 
     33 H          63.4903   25.9018   42.7648 H         1 RN8281      0.0000 
     34 H          58.1435   30.6081   46.1275 H         1 RN8281      0.0000 
     35 H          57.5513   31.8229   44.9815 H         1 RN8281      0.0000 
     36 H          64.1180   21.8116   46.0370 H         1 RN8281      0.0000 
     37 H          64.7296   20.6196   44.8772 H         1 RN8281      0.0000 
     38 H          58.6750   26.5200   42.7388 H         1 RN8281      0.0000 
     39 H          63.5190   19.5398   46.7015 H         1 RN8281      0.0000 
     40 H          62.1642   20.3472   46.3869 H         1 RN8281      0.0000 
     41 H          62.7186   19.2656   45.3338 H         1 RN8281      0.0000 
     42 H          60.1478   32.0003   46.4427 H         1 RN8281      0.0000 
     43 H          59.6133   33.1019   45.4002 H         1 RN8281      0.0000 
     44 H          58.8338   32.8615   46.7862 H         1 RN8281      0.0000 
@<TRIPOS>BOND
     1    3    1 ar   
     2   22    1 ar   
     3   31    1 1    
     4   21    2 ar   
     5   23    2 ar   
     6   32    2 1    
     7   21    3 ar   
     8   33    3 1    
     9    7    4 1    
    10   30    4 1    
    11   34    4 1    
    12   35    4 1    
    13   16    5 1    
    14   17    5 1    
    15   36    5 1    
    16   37    5 1    
    17   19    6 1    
    18   20    6 3    
    19    8    7 2    
    20   29    7 1    
    21    9    8 1    
    22   24    8 1    
    23   22    9 1    
    24   26    9 2    
    25   12   10 1    
    26   15   10 1    
    27   18   10 2    
    28   26   11 1    
    29   27   11 ar   
    30   28   11 ar   
    31   13   12 ar   
    32   14   12 ar   
    33   16   15 1    
    34   19   16 2    
    35   39   17 1    
    36   40   17 1    
    37   41   17 1    
    38   19   18 1    
    39   21   18 1    
    40   23   22 ar   
    41   38   23 1    
    42   25   24 3    
    43   29   26 1    
    44   42   30 1    
    45   43   30 1    
    46   44   30 1    
@<TRIPOS>SUBSTRUCTURE
     1 RN8281      1 GROUP   
@<TRIPOS>SET

