#    Name: 4ifn_12O_1_INTS_M
#    Modification time : Tue Mar 25 03:54:58 2014

@<TRIPOS>MOLECULE
4ifn_12O_1_INTS_M
   50     0     9     0     0
SMALL
NO_CHARGES


@<TRIPOS>ATOM
      1 N          45.8170    6.0540   19.9400 N.am      1 SEC2        0.0000 
      2 N          46.7960    6.6110   18.7330 N.am      7 SEL2        0.0000 
      3 N          44.8380    5.4970   21.1470 N.am      4 SEP2        0.0000 
      4 NZ         49.4360    7.2740   20.3375 N.4       2 LYC4        0.0000 
      5 NZ         48.9700    6.3050   18.6880 N.4       8 LYL4        0.0000 
      6 NZ         49.9020    8.2430   21.9870 N.4       5 LYP4        0.0000 
      7 N          49.0405    4.9655   17.6770 N.am      1 SEC2        0.0000 
      8 N          48.9700    6.3050   18.6880 N.am      7 SEL2        0.0000 
      9 N          49.1110    3.6260   16.6660 N.am      4 SEP2        0.0000 
     10 CA         48.1480   10.6985   18.2870 C.3       3 GLC5        0.0000 
     11 CA         48.6320    8.9410   17.0360 C.3       9 GLL5        0.0000 
     12 CA         47.6640   12.4560   19.5380 C.3       6 GLP5        0.0000 
     13 CA         46.0250   10.5770   15.4475 C.3       3 GLC5        0.0000 
     14 CA         46.4620    8.8360   15.3930 C.3       9 GLL5        0.0000 
     15 CA         45.5880   12.3180   15.5020 C.3       6 GLP5        0.0000 
     16 N          48.4665    4.6725   15.8910 N.am      1 SEC2        0.0000 
     17 N          47.8220    5.7190   15.1160 N.am      7 SEL2        0.0000 
     18 N          44.2510    7.8825   12.0460 N.am      1 SEC2        0.0000 
     19 N          45.4290    7.2040   11.8140 N.am      7 SEL2        0.0000 
     20 N          43.0730    8.5610   12.2780 N.am      4 SEP2        0.0000 
     21 CA         47.6052   11.1130   15.2397 C.3       3 GLC5        0.0000 
     22 CA         47.7260    9.3780   14.7160 C.3       9 GLL5        0.0000 
     23 CA         46.8660   12.8260   15.3060 C.3       6 GLP5        0.0000 
     24 CA         43.0643    4.9250   13.8488 C.3       3 GLC5        0.0000 
     25 CA         44.2580    6.1890   14.9320 C.3       9 GLL5        0.0000 
     26 CA         42.2000    4.0850   12.2170 C.3       6 GLP5        0.0000 
     27 CA         42.0902    6.1515   14.9672 C.3       3 GLC5        0.0000 
     28 CA         40.2520    6.5380   14.4540 C.3       6 GLP5        0.0000 
     29 CA         42.7045    3.7465   14.0263 C.3       3 GLC5        0.0000 
     30 CA         43.6850    3.8720   15.6210 C.3       9 GLL5        0.0000 
     31 CA         42.3432    4.6996   17.4718 C.3       3 GLC5        0.0000 
     32 CA         42.7330    2.9440   16.0500 C.3       9 GLL5        0.0000 
     33 CA         41.4990    5.6240   19.0060 C.3       6 GLP5        0.0000 
     34 CA         44.1608    3.1091   17.4333 C.3       3 GLC5        0.0000 
     35 CA         43.5990    5.3410   16.0290 C.3       9 GLL5        0.0000 
     36 CA         45.1340    2.4430   18.9290 C.3       6 GLP5        0.0000 
     37 CA         44.7498    1.6260   16.5985 C.3       3 GLC5        0.0000 
     38 CA         42.8390    1.6040   15.6550 C.3       9 GLL5        0.0000 
     39 CA         46.1450    1.8660   17.9600 C.3       6 GLP5        0.0000 
     40 CA         43.4862   -0.2800   16.2735 C.3       3 GLC5        0.0000 
     41 CA         43.8700    1.1680   14.8190 C.3       9 GLL5        0.0000 
     42 CA         43.6180   -1.9460   17.3100 C.3       6 GLP5        0.0000 
     43 CA         42.7772    2.7355   13.7270 C.3       3 GLC5        0.0000 
     44 CA         45.4788    2.2995   16.2542 C.3       3 GLC5        0.0000 
     45 CA         44.8400    2.0610   14.3620 C.3       9 GLL5        0.0000 
     46 CA         43.2056    0.1592   14.0353 C.3       3 GLC5        0.0000 
     47 CA         42.3140   -1.4050   13.2710 C.3       6 GLP5        0.0000 
     48 CA         43.5063    3.4090   13.3827 C.3       3 GLC5        0.0000 
     49 CA         43.9705    4.2615   12.8373 C.3       3 GLC5        0.0000 
     50 CA         45.6880    4.5200   12.6900 C.3       9 GLL5        0.0000 
@<TRIPOS>BOND
@<TRIPOS>SUBSTRUCTURE
     1 SEC2        1 GROUP        1 X    SEC  0     ROOT SEC X 2
     2 LYC4        4 GROUP        1 X    LYC  0     **** LYC X 4
     3 GLC5       10 GROUP        1 X    GLC  0     **** GLC X 6
     4 SEP2        3 GROUP        1 Y    SEP  0     ROOT SEP Y 9
     5 LYP4        6 GROUP        1 Y    LYP  0     **** LYP Y 11
     6 GLP5       12 GROUP        1 Y    GLP  0     **** GLP Y 13
     7 SEL2        2 GROUP        1 Z    SEL  0     ROOT SEL Z 16
     8 LYL4        5 GROUP        1 Z    LYL  0     **** LYL Z 18
     9 GLL5       11 GROUP        1 Z    GLL  0     **** GLL Z 20
@<TRIPOS>SET

