#    Name: 4ifn_12O_1_ligand
#    Modification time : Tue Mar 25 03:54:58 2014

@<TRIPOS>MOLECULE
4ifn_12O_1_ligand
   58    62     1     0     0
SMALL
NO_CHARGES


@<TRIPOS>ATOM
      1 O33        46.7960    6.6110   18.7330 O.co2     1 12O701      0.0000 
      2 C31        47.9200    6.7880   18.2220 C.2       1 12O701      0.0000 
      3 O32        48.9700    6.3050   18.6880 O.co2     1 12O701      0.0000 
      4 C26        48.0220    7.5420   16.9270 C.3       1 12O701      0.0000 
      5 C27        48.6320    8.9410   17.0360 C.3       1 12O701      0.0000 
      6 C28        48.9630    9.4220   15.6310 C.3       1 12O701      0.0000 
      7 C29        47.7260    9.3780   14.7160 C.3       1 12O701      0.0000 
      8 C30        46.4620    8.8360   15.3930 C.3       1 12O701      0.0000 
      9 C25        46.6770    7.5260   16.1890 C.3       1 12O701      0.0000 
     10 C23        46.7400    6.2630   15.3360 C.2       1 12O701      0.0000 
     11 O24        47.8220    5.7190   15.1160 O.2       1 12O701      0.0000 
     12 N14        45.6340    5.6850   14.8540 N.am      1 12O701      0.0000 
     13 C15        44.2580    6.1890   14.9320 C.3       1 12O701      0.0000 
     14 C16        43.5990    5.3410   16.0290 C.3       1 12O701      0.0000 
     15 C17        43.6850    3.8720   15.6210 C.ar      1 12O701      0.0000 
     16 C22        42.7330    2.9440   16.0500 C.ar      1 12O701      0.0000 
     17 C21        42.8390    1.6040   15.6550 C.ar      1 12O701      0.0000 
     18 C20        43.8700    1.1680   14.8190 C.ar      1 12O701      0.0000 
     19 C19        44.8400    2.0610   14.3620 C.ar      1 12O701      0.0000 
     20 C18        44.7850    3.4050   14.7350 C.ar      1 12O701      0.0000 
     21 C13        45.7940    4.3560   14.2250 C.3       1 12O701      0.0000 
     22 C12        45.6880    4.5200   12.6900 C.3       1 12O701      0.0000 
     23 N8         46.7540    5.4140   12.2380 N.am      1 12O701      0.0000 
     24 C7         48.0810    5.1670   12.1270 C.2       1 12O701      0.0000 
     25 O11        48.6020    4.0250   12.4170 O.2       1 12O701      0.0000 
     26 C2         48.8860    6.3210   11.6360 C.ar      1 12O701      0.0000 
     27 C9         46.6000    6.6770   11.8330 C.2       1 12O701      0.0000 
     28 O10        45.4290    7.2040   11.8140 O.2       1 12O701      0.0000 
     29 C3         47.8700    7.3620   11.4240 C.ar      1 12O701      0.0000 
     30 C4         48.2480    8.6220   10.9610 C.ar      1 12O701      0.0000 
     31 C5         49.6100    8.8600   10.7030 C.ar      1 12O701      0.0000 
     32 C6         50.5740    7.8590   10.8980 C.ar      1 12O701      0.0000 
     33 C1         50.2270    6.5720   11.3610 C.ar      1 12O701      0.0000 
     34 H          48.7247    6.9418   16.2648 H         1 12O701      0.0000 
     35 H          49.5330    8.8930   17.6253 H         1 12O701      0.0000 
     36 H          47.9173    9.6080   17.4895 H         1 12O701      0.0000 
     37 H          49.7406    8.7886   15.2023 H         1 12O701      0.0000 
     38 H          49.3327   10.4472   15.6741 H         1 12O701      0.0000 
     39 H          47.9577    8.7536   13.8384 H         1 12O701      0.0000 
     40 H          47.5248   10.3956   14.3447 H         1 12O701      0.0000 
     41 H          45.6918    8.6566   14.6266 H         1 12O701      0.0000 
     42 H          46.0650    9.6005   16.0791 H         1 12O701      0.0000 
     43 H          45.9051    7.4088   16.9251 H         1 12O701      0.0000 
     44 H          43.7315    6.0304   14.0147 H         1 12O701      0.0000 
     45 H          44.2344    7.2151   15.2327 H         1 12O701      0.0000 
     46 H          42.5650    5.6290   16.1289 H         1 12O701      0.0000 
     47 H          44.1247    5.4899   16.9583 H         1 12O701      0.0000 
     48 H          41.9590    3.2406   16.6516 H         1 12O701      0.0000 
     49 H          42.1355    0.9216   15.9916 H         1 12O701      0.0000 
     50 H          43.9139    0.1774   14.5376 H         1 12O701      0.0000 
     51 H          45.5955    1.7292   13.7503 H         1 12O701      0.0000 
     52 H          46.7929    3.9823   14.4367 H         1 12O701      0.0000 
     53 H          44.7076    4.9281   12.4642 H         1 12O701      0.0000 
     54 H          45.7808    3.5357   12.2413 H         1 12O701      0.0000 
     55 H          47.5613    9.3531   10.8121 H         1 12O701      0.0000 
     56 H          49.9049    9.7895   10.3637 H         1 12O701      0.0000 
     57 H          51.5685    8.0673   10.6975 H         1 12O701      0.0000 
     58 H          50.9346    5.8632   11.4856 H         1 12O701      0.0000 
@<TRIPOS>BOND
     1    2    1 ar   
     2    3    2 ar   
     3    4    2 1    
     4    5    4 1    
     5    9    4 1    
     6   34    4 1    
     7    6    5 1    
     8   35    5 1    
     9   36    5 1    
    10    7    6 1    
    11   37    6 1    
    12   38    6 1    
    13    8    7 1    
    14   39    7 1    
    15   40    7 1    
    16    9    8 1    
    17   41    8 1    
    18   42    8 1    
    19   10    9 1    
    20   43    9 1    
    21   11   10 2    
    22   12   10 am   
    23   13   12 1    
    24   21   12 1    
    25   14   13 1    
    26   44   13 1    
    27   45   13 1    
    28   15   14 1    
    29   46   14 1    
    30   47   14 1    
    31   16   15 ar   
    32   20   15 ar   
    33   17   16 ar   
    34   48   16 1    
    35   18   17 ar   
    36   49   17 1    
    37   19   18 ar   
    38   50   18 1    
    39   20   19 ar   
    40   51   19 1    
    41   21   20 1    
    42   22   21 1    
    43   52   21 1    
    44   23   22 1    
    45   53   22 1    
    46   54   22 1    
    47   24   23 am   
    48   27   23 am   
    49   25   24 2    
    50   26   24 1    
    51   29   26 ar   
    52   33   26 ar   
    53   28   27 2    
    54   29   27 1    
    55   30   29 ar   
    56   31   30 ar   
    57   55   30 1    
    58   32   31 ar   
    59   56   31 1    
    60   33   32 ar   
    61   57   32 1    
    62   58   33 1    
@<TRIPOS>SUBSTRUCTURE
     1 12O701      1 GROUP   
@<TRIPOS>SET

