#    Name: 2zb3_NDP_1_INTS_M
#    Modification time : Mon Apr  7 18:42:00 2014

@<TRIPOS>MOLECULE
2zb3_NDP_1_INTS_M
   99     0    12     0     0
SMALL
NO_CHARGES


@<TRIPOS>ATOM
      1 N          20.6710   -2.4050  -69.8555 N.am      2 SEC2        0.0000 
      2 N          20.0400   -2.8490  -70.9530 N.am     10 SEL2        0.0000 
      3 N          21.3020   -1.9610  -68.7580 N.am      6 SEP2        0.0000 
      4 N          19.3015   -4.3225  -70.7000 N.am      2 SEC2        0.0000 
      5 N          18.5630   -5.7960  -70.4470 N.am      6 SEP2        0.0000 
      6 N          18.3210   -4.4015  -71.4575 N.am      2 SEC2        0.0000 
      7 N          18.0790   -3.0070  -72.4680 N.am     10 SEL2        0.0000 
      8 CA         18.0635   -2.0340  -74.8310 C.3       4 GLC5        0.0000 
      9 CA         16.8360   -2.5870  -73.1300 C.3      12 GLL5        0.0000 
     10 CA         19.2910   -1.4810  -76.5320 C.3       8 GLP5        0.0000 
     11 CA         17.5370   -3.8290  -74.3550 C.3       4 GLC5        0.0000 
     12 CA         18.2380   -5.0710  -75.5800 C.3       8 GLP5        0.0000 
     13 O          16.0055   -5.4420  -71.1710 O.2       1 ALC1        0.0000 
     14 O          15.3230   -4.2780  -70.8610 O.2       9 ALL1        0.0000 
     15 O          16.6880   -6.6060  -71.4810 O.2       5 ALP1        0.0000 
     16 CA         13.7160    0.0985  -73.5625 C.3       4 GLC5        0.0000 
     17 CA         13.5280   -1.3620  -72.1290 C.3      12 GLL5        0.0000 
     18 CA         13.9040    1.5590  -74.9960 C.3       8 GLP5        0.0000 
     19 CA         10.5315    2.2925  -74.0195 C.3       4 GLC5        0.0000 
     20 CA          9.6470    0.4490  -74.4510 C.3      12 GLL5        0.0000 
     21 CA         11.4160    4.1360  -73.5880 C.3       8 GLP5        0.0000 
     22 CA         10.1105    1.7415  -75.9530 C.3       4 GLC5        0.0000 
     23 CA         10.5740    3.0340  -77.4550 C.3       8 GLP5        0.0000 
     24 CA         10.8320    2.8280  -73.0060 C.3       4 GLC5        0.0000 
     25 CA         10.2480    1.5200  -72.4240 C.3      12 GLL5        0.0000 
     26 CA          9.3220    2.8315  -71.4045 C.3       4 GLC5        0.0000 
     27 CA          8.3960    4.1430  -70.3850 C.3       8 GLP5        0.0000 
     28 N           9.9100   -0.0460  -71.4805 N.am      2 SEC2        0.0000 
     29 N          11.3090    0.7520  -72.1440 N.am     10 SEL2        0.0000 
     30 N           8.5110   -0.8440  -70.8170 N.am      6 SEP2        0.0000 
     31 N          22.2055    0.2390  -70.4695 N.am      2 SEC2        0.0000 
     32 N          21.6590   -0.1710  -71.6450 N.am     10 SEL2        0.0000 
     33 N          22.7520    0.6490  -69.2940 N.am      6 SEP2        0.0000 
     34 CA         16.9830    2.0655  -75.9475 C.3       4 GLC5        0.0000 
     35 CA         19.1240    2.5560  -75.6570 C.3      12 GLL5        0.0000 
     36 CA         14.8420    1.5750  -76.2380 C.3       8 GLP5        0.0000 
     37 O          17.0505    3.9085  -75.2125 O.2       1 ALC1        0.0000 
     38 O          18.1010    3.3640  -76.1640 O.2       9 ALL1        0.0000 
     39 O          16.0000    4.4530  -74.2610 O.2       5 ALP1        0.0000 
     40 N          19.1645    3.7845  -78.4010 N.am      2 SEC2        0.0000 
     41 N          20.1830    2.9660  -77.7520 N.am     10 SEL2        0.0000 
     42 N          18.1460    4.6030  -79.0500 N.am      6 SEP2        0.0000 
     43 CA         21.7010    5.0440  -74.4335 C.3       4 GLC5        0.0000 
     44 CA         21.1120    3.7770  -75.6300 C.3      12 GLL5        0.0000 
     45 CA         22.2900    6.3110  -73.2370 C.3       8 GLP5        0.0000 
     46 N          27.2815    7.5830  -77.2375 N.am      2 SEC2        0.0000 
     47 N          26.2400    6.5340  -77.0960 N.am     10 SEL2        0.0000 
     48 N          28.3230    8.6320  -77.3790 N.am      6 SEP2        0.0000 
     49 O          22.7395    7.4635  -76.5055 O.2       1 ALC1        0.0000 
     50 O          24.1760    7.5020  -76.7750 O.2       9 ALL1        0.0000 
     51 O          21.3030    7.4250  -76.2360 O.2       5 ALP1        0.0000 
     52 O          24.2665    8.8700  -77.2800 O.2       1 ALC1        0.0000 
     53 O          24.3570   10.2380  -77.7850 O.2       5 ALP1        0.0000 
     54 CA         27.2965    4.9465  -76.3570 C.3       4 GLC5        0.0000 
     55 CA         25.3500    4.0350  -76.1160 C.3      12 GLL5        0.0000 
     56 CA         29.2430    5.8580  -76.5980 C.3       8 GLP5        0.0000 
     57 CA         22.8445    4.5005  -74.3690 C.3       4 GLC5        0.0000 
     58 CA         23.3990    2.6900  -75.5010 C.3      12 GLL5        0.0000 
     59 N          11.0490   -1.3520  -67.4085 N.am      2 SEC2        0.0000 
     60 N          12.1340   -1.4390  -68.1900 N.am     10 SEL2        0.0000 
     61 N           9.9640   -1.2650  -66.6270 N.am      6 SEP2        0.0000 
     62 N           9.7375   -1.4935  -70.5970 N.am      2 SEC2        0.0000 
     63 N          10.9640   -2.1430  -70.3770 N.am     10 SEL2        0.0000 
     64 NZ         12.4655   -4.6700  -68.3295 N.4       3 LYC4        0.0000 
     65 NZ         11.5900   -3.8560  -68.6940 N.4      11 LYL4        0.0000 
     66 NZ         13.3410   -5.4840  -67.9650 N.4       7 LYP4        0.0000 
     67 N          12.4655   -4.6700  -68.3295 N.am      2 SEC2        0.0000 
     68 N          11.5900   -3.8560  -68.6940 N.am     10 SEL2        0.0000 
     69 N          13.3410   -5.4840  -67.9650 N.am      6 SEP2        0.0000 
     70 CA         16.0478   -1.5745  -74.3600 C.3       4 GLC5        0.0000 
     71 CA         15.7010   -2.2630  -72.1720 C.3      12 GLL5        0.0000 
     72 CA         15.8270   -0.7240  -76.0690 C.3       8 GLP5        0.0000 
     73 CA         13.4210   -4.7603  -71.6478 C.3       4 GLC5        0.0000 
     74 CA         14.7720   -3.4390  -71.8750 C.3      12 GLL5        0.0000 
     75 CA         12.7070   -6.4300  -71.6490 C.3       8 GLP5        0.0000 
     76 CA         11.7690    1.7480  -73.5305 C.3       4 GLC5        0.0000 
     77 CA         11.5080   -0.2230  -73.1140 C.3      12 GLL5        0.0000 
     78 CA         12.3765    0.7284  -74.3650 C.3       4 GLC5        0.0000 
     79 CA         18.5403    3.3818  -72.7058 C.3       4 GLC5        0.0000 
     80 CA         19.6630    1.6630  -73.3100 C.3      12 GLL5        0.0000 
     81 CA         17.4870    4.4980  -71.6530 C.3       8 GLP5        0.0000 
     82 CA         19.3430    0.8638  -76.9405 C.3       4 GLC5        0.0000 
     83 CA         18.8980   -0.8770  -77.8590 C.3       8 GLP5        0.0000 
     84 CA         18.7225    2.4872  -77.9340 C.3       4 GLC5        0.0000 
     85 CA         17.6570    2.3700  -79.8460 C.3       8 GLP5        0.0000 
     86 CA         24.7578    5.4845  -74.7643 C.3       4 GLC5        0.0000 
     87 CA         23.1360    4.9860  -76.2020 C.3      12 GLL5        0.0000 
     88 CA         25.7070    5.9080  -73.2400 C.3       8 GLP5        0.0000 
     89 CA         23.0493    5.6860  -74.7627 C.3       4 GLC5        0.0000 
     90 CA         24.4810    5.1360  -76.3750 C.3      12 GLL5        0.0000 
     91 CA         26.6193    2.5112  -75.9748 C.3       4 GLC5        0.0000 
     92 CA         28.1820    1.6030  -76.0540 C.3       8 GLP5        0.0000 
     93 CA         25.3818    4.6638  -74.5677 C.3       4 GLC5        0.0000 
     94 CA         24.7630    2.8040  -75.6750 C.3      12 GLL5        0.0000 
     95 CA         24.0410    2.6205  -73.6380 C.3       4 GLC5        0.0000 
     96 CA         24.0010    2.4940  -71.6880 C.3       8 GLP5        0.0000 
     97 CA         19.3720    4.8468  -75.8821 C.3       4 GLC5        0.0000 
     98 CA         20.4520    2.6530  -76.3870 C.3      12 GLL5        0.0000 
     99 CA         18.6910    6.7300  -76.2940 C.3       8 GLP5        0.0000 
@<TRIPOS>BOND
@<TRIPOS>SUBSTRUCTURE
     1 ALC1       13 GROUP        1 X    ALC  0     ROOT ALC X 1
     2 SEC2        1 GROUP        1 X    SEC  0     **** SEC X 2
     3 LYC4       64 GROUP        1 X    LYC  0     **** LYC X 4
     4 GLC5        8 GROUP        1 X    GLC  0     **** GLC X 6
     5 ALP1       15 GROUP        1 Y    ALP  0     ROOT ALP Y 8
     6 SEP2        3 GROUP        1 Y    SEP  0     **** SEP Y 9
     7 LYP4       66 GROUP        1 Y    LYP  0     **** LYP Y 11
     8 GLP5       10 GROUP        1 Y    GLP  0     **** GLP Y 13
     9 ALL1       14 GROUP        1 Z    ALL  0     ROOT ALL Z 15
    10 SEL2        2 GROUP        1 Z    SEL  0     **** SEL Z 16
    11 LYL4       65 GROUP        1 Z    LYL  0     **** LYL Z 18
    12 GLL5        9 GROUP        1 Z    GLL  0     **** GLL Z 20
@<TRIPOS>SET

