#    Name: 2zb3_NDP_1_ligand
#    Modification time : Mon Apr  7 18:42:00 2014

@<TRIPOS>MOLECULE
2zb3_NDP_1_ligand
   74    78     1     0     0
SMALL
NO_CHARGES


@<TRIPOS>ATOM
      1 PA         19.0930   -1.9950  -71.8080 P.3       1 NDP900      0.0000 
      2 O1A        20.0400   -2.8490  -70.9530 O.co2     1 NDP900      0.0000 
      3 O2A        18.4530   -0.8280  -71.1750 O.co2     1 NDP900      0.0000 
      4 O5B        18.0790   -3.0070  -72.4680 O.3       1 NDP900      0.0000 
      5 C5B        16.8360   -2.5870  -73.1300 C.3       1 NDP900      0.0000 
      6 C4B        15.7010   -2.2630  -72.1720 C.3       1 NDP900      0.0000 
      7 O4B        14.8070   -1.2350  -72.7960 O.3       1 NDP900      0.0000 
      8 C3B        14.7720   -3.4390  -71.8750 C.3       1 NDP900      0.0000 
      9 O3B        15.3230   -4.2780  -70.8610 O.3       1 NDP900      0.0000 
     10 C2B        13.4980   -2.7420  -71.4180 C.3       1 NDP900      0.0000 
     11 O2B        13.3810   -2.6030  -69.9990 O.3       1 NDP900      0.0000 
     12 C1B        13.5280   -1.3620  -72.1290 C.3       1 NDP900      0.0000 
     13 N9A        12.4810   -1.1740  -73.1440 N.pl3     1 NDP900      0.0000 
     14 C8A        12.2580   -1.8710  -74.2780 C.2       1 NDP900      0.0000 
     15 N7A        11.1970   -1.4430  -74.9950 N.2       1 NDP900      0.0000 
     16 C5A        10.7330   -0.4120  -74.2570 C.ar      1 NDP900      0.0000 
     17 C6A         9.6470    0.4490  -74.4510 C.ar      1 NDP900      0.0000 
     18 N6A         8.8170    0.3740  -75.5100 N.pl3     1 NDP900      0.0000 
     19 N1A         9.4690    1.3880  -73.4870 N.ar      1 NDP900      0.0000 
     20 C2A        10.2480    1.5200  -72.4240 C.ar      1 NDP900      0.0000 
     21 N3A        11.3090    0.7520  -72.1440 N.ar      1 NDP900      0.0000 
     22 C4A        11.5080   -0.2230  -73.1140 C.ar      1 NDP900      0.0000 
     23 O3         19.9750   -1.4740  -72.9800 O.3       1 NDP900      0.0000 
     24 PN         21.2290   -0.5400  -73.0190 P.3       1 NDP900      0.0000 
     25 O1N        21.6590   -0.1710  -71.6450 O.co2     1 NDP900      0.0000 
     26 O2N        22.1730   -1.2380  -73.9130 O.co2     1 NDP900      0.0000 
     27 O5D        20.7190    0.7920  -73.8200 O.3       1 NDP900      0.0000 
     28 C5D        19.6630    1.6630  -73.3100 C.3       1 NDP900      0.0000 
     29 C4D        19.5240    2.8680  -74.2070 C.3       1 NDP900      0.0000 
     30 O4D        20.8340    3.5300  -74.2880 O.3       1 NDP900      0.0000 
     31 C3D        19.1240    2.5560  -75.6570 C.3       1 NDP900      0.0000 
     32 O3D        18.1010    3.3640  -76.1640 O.3       1 NDP900      0.0000 
     33 C2D        20.4520    2.6530  -76.3870 C.3       1 NDP900      0.0000 
     34 O2D        20.1830    2.9660  -77.7520 O.3       1 NDP900      0.0000 
     35 C1D        21.1120    3.7770  -75.6300 C.3       1 NDP900      0.0000 
     36 N1N        22.5780    3.8180  -75.7800 N.pl3     1 NDP900      0.0000 
     37 C2N        23.1360    4.9860  -76.2020 C.2       1 NDP900      0.0000 
     38 C3N        24.4810    5.1360  -76.3750 C.2       1 NDP900      0.0000 
     39 C7N        25.0560    6.4520  -76.8090 C.2       1 NDP900      0.0000 
     40 O7N        26.2400    6.5340  -77.0960 O.2       1 NDP900      0.0000 
     41 N7N        24.1760    7.5020  -76.7750 N.am      1 NDP900      0.0000 
     42 C4N        25.3500    4.0350  -76.1160 C.3       1 NDP900      0.0000 
     43 C5N        24.7630    2.8040  -75.6750 C.2       1 NDP900      0.0000 
     44 C6N        23.3990    2.6900  -75.5010 C.2       1 NDP900      0.0000 
     45 P2B        11.9220   -2.4850  -69.2490 P.3       1 NDP900      0.0000 
     46 O1X        12.1340   -1.4390  -68.1900 O.co2     1 NDP900      0.0000 
     47 O2X        10.9640   -2.1430  -70.3770 O.co2     1 NDP900      0.0000 
     48 O3X        11.5900   -3.8560  -68.6940 O.co2     1 NDP900      0.0000 
     49 H          16.4863   -3.3797  -73.8244 H         1 NDP900      0.0000 
     50 H          17.0223   -1.6919  -73.7602 H         1 NDP900      0.0000 
     51 H          16.0782   -1.8751  -71.2545 H         1 NDP900      0.0000 
     52 H          14.5725   -3.9352  -72.7896 H         1 NDP900      0.0000 
     53 H          12.6590   -3.2817  -71.8521 H         1 NDP900      0.0000 
     54 H          13.4506   -0.5972  -71.3655 H         1 NDP900      0.0000 
     55 H          12.8325   -2.6428  -74.5646 H         1 NDP900      0.0000 
     56 H           8.0469    1.0119  -75.5115 H         1 NDP900      0.0000 
     57 H           9.0451   -0.3128  -76.2001 H         1 NDP900      0.0000 
     58 H          10.0133    2.3104  -71.7214 H         1 NDP900      0.0000 
     59 H          19.8978    2.0032  -72.2978 H         1 NDP900      0.0000 
     60 H          18.7065    1.1342  -73.2805 H         1 NDP900      0.0000 
     61 H          18.8115    3.5576  -73.7946 H         1 NDP900      0.0000 
     62 H          18.8628    1.4826  -75.6558 H         1 NDP900      0.0000 
     63 H          20.9752    1.7622  -76.2308 H         1 NDP900      0.0000 
     64 H          20.6772    4.7062  -75.9441 H         1 NDP900      0.0000 
     65 H          22.5052    5.8073  -76.4033 H         1 NDP900      0.0000 
     66 H          23.2333    7.2782  -76.5274 H         1 NDP900      0.0000 
     67 H          24.5536    8.4000  -77.0008 H         1 NDP900      0.0000 
     68 H          26.1441    4.3556  -75.3611 H         1 NDP900      0.0000 
     69 H          25.9804    3.8302  -77.0454 H         1 NDP900      0.0000 
     70 H          25.3884    2.0062  -75.4915 H         1 NDP900      0.0000 
     71 H          22.9704    1.8265  -75.1809 H         1 NDP900      0.0000 
     72 H          15.9846   -4.8580  -71.3364 H         1 NDP900      0.0000 
     73 H          17.5490    3.6124  -75.3680 H         1 NDP900      0.0000 
     74 H          21.0690    3.2229  -78.1379 H         1 NDP900      0.0000 
@<TRIPOS>BOND
     1    2    1 ar   
     2    3    1 ar   
     3    4    1 1    
     4   23    1 1    
     5    5    4 1    
     6    6    5 1    
     7   49    5 1    
     8   50    5 1    
     9    7    6 1    
    10    8    6 1    
    11   51    6 1    
    12   12    7 1    
    13    9    8 1    
    14   10    8 1    
    15   52    8 1    
    16   72    9 1    
    17   11   10 1    
    18   12   10 1    
    19   53   10 1    
    20   45   11 1    
    21   13   12 1    
    22   54   12 1    
    23   14   13 1    
    24   22   13 1    
    25   15   14 2    
    26   55   14 1    
    27   16   15 1    
    28   17   16 ar   
    29   22   16 ar   
    30   18   17 1    
    31   19   17 ar   
    32   56   18 1    
    33   57   18 1    
    34   20   19 ar   
    35   21   20 ar   
    36   58   20 1    
    37   22   21 ar   
    38   24   23 1    
    39   25   24 ar   
    40   26   24 ar   
    41   27   24 1    
    42   28   27 1    
    43   29   28 1    
    44   59   28 1    
    45   60   28 1    
    46   30   29 1    
    47   31   29 1    
    48   61   29 1    
    49   35   30 1    
    50   32   31 1    
    51   33   31 1    
    52   62   31 1    
    53   73   32 1    
    54   34   33 1    
    55   35   33 1    
    56   63   33 1    
    57   74   34 1    
    58   36   35 1    
    59   64   35 1    
    60   37   36 1    
    61   44   36 1    
    62   38   37 2    
    63   65   37 1    
    64   39   38 1    
    65   42   38 1    
    66   40   39 2    
    67   41   39 am   
    68   66   41 1    
    69   67   41 1    
    70   43   42 1    
    71   68   42 1    
    72   69   42 1    
    73   44   43 2    
    74   70   43 1    
    75   71   44 1    
    76   46   45 ar   
    77   47   45 ar   
    78   48   45 ar   
@<TRIPOS>SUBSTRUCTURE
     1 NDP900      1 GROUP   
@<TRIPOS>SET

