#    Name: 2qs2_UBF_2_INTS_M
#    Modification time : Mon Mar 24 22:41:45 2014

@<TRIPOS>MOLECULE
2qs2_UBF_2_INTS_M
   48     0    12     0     0
SMALL
NO_CHARGES


@<TRIPOS>ATOM
      1 N         -56.7680   -0.7105   19.1375 N.am      2 SEC2        0.0000 
      2 N         -55.9310   -1.2300   18.2150 N.am     10 SEL2        0.0000 
      3 N         -57.6050   -0.1910   20.0600 N.am      6 SEP2        0.0000 
      4 N         -58.6840   -1.5545   18.0905 N.am      2 SEC2        0.0000 
      5 N         -57.7670   -0.9980   17.0510 N.am     10 SEL2        0.0000 
      6 N         -59.6010   -2.1110   19.1300 N.am      6 SEP2        0.0000 
      7 N         -57.6860   -0.5945   18.5555 N.am      2 SEC2        0.0000 
      8 CA        -57.4465   -0.2100   13.8085 C.3       4 GLC5        0.0000 
      9 CA        -56.5740   -1.7370   14.3780 C.3      12 GLL5        0.0000 
     10 CA        -58.3190    1.3170   13.2390 C.3       8 GLP5        0.0000 
     11 CA        -58.3640   -2.4890   14.6540 C.3       4 GLC5        0.0000 
     12 CA        -60.1540   -3.2410   14.9300 C.3       8 GLP5        0.0000 
     13 CA        -53.7600   -2.4770   19.0115 C.3       4 GLC5        0.0000 
     14 CA        -53.9750   -3.1930   17.0920 C.3      12 GLL5        0.0000 
     15 CA        -53.5450   -1.7610   20.9310 C.3       8 GLP5        0.0000 
     16 CA        -48.1250   -5.2905   14.9635 C.3       4 GLC5        0.0000 
     17 CA        -48.9550   -4.8200   16.5000 C.3      12 GLL5        0.0000 
     18 CA        -47.2950   -5.7610   13.4270 C.3       8 GLP5        0.0000 
     19 CA        -47.1555   -4.7560   17.1170 C.3       4 GLC5        0.0000 
     20 CA        -45.3560   -4.6920   17.7340 C.3       8 GLP5        0.0000 
     21 CA        -48.2105   -6.3815   17.2830 C.3       4 GLC5        0.0000 
     22 CA        -47.4660   -7.9430   18.0660 C.3       8 GLP5        0.0000 
     23 CA        -50.8390   -7.7975   15.2430 C.3       4 GLC5        0.0000 
     24 CA        -51.3260   -6.4800   16.4080 C.3      12 GLL5        0.0000 
     25 CA        -50.3520   -9.1150   14.0780 C.3       8 GLP5        0.0000 
     26 CA        -49.3960   -7.2115   17.2370 C.3       4 GLC5        0.0000 
     27 O         -51.1290   -8.8925   18.4025 O.2       1 ALC1        0.0000 
     28 O         -52.5100   -8.3220   18.6810 O.2       9 ALL1        0.0000 
     29 O         -49.7480   -9.4630   18.1240 O.2       5 ALP1        0.0000 
     30 O         -52.9970   -8.6930   20.0470 O.2       1 ALC1        0.0000 
     31 O         -53.4840   -9.0640   21.4130 O.2       5 ALP1        0.0000 
     32 NZ        -53.9360  -11.9535   18.8290 N.4       3 LYC4        0.0000 
     33 NZ        -53.2720  -10.8370   18.3890 N.4      11 LYL4        0.0000 
     34 NZ        -55.3910  -13.6880   18.3960 N.4       7 LYP4        0.0000 
     35 N         -52.6565  -11.1380   19.6230 N.am      2 SEC2        0.0000 
     36 N         -53.2720  -10.8370   18.3890 N.am     10 SEL2        0.0000 
     37 N         -52.0410  -11.4390   20.8570 N.am      6 SEP2        0.0000 
     38 N         -53.9360  -11.9535   18.8290 N.am      2 SEC2        0.0000 
     39 N         -54.6000  -13.0700   19.2690 N.am      6 SEP2        0.0000 
     40 N         -54.4600  -11.9735   17.8070 N.am      2 SEC2        0.0000 
     41 N         -55.6480  -13.1100   17.2250 N.am      6 SEP2        0.0000 
     42 NZ        -55.2415  -11.7680   17.0650 N.4       3 LYC4        0.0000 
     43 NZ        -54.8350  -10.4260   16.9050 N.4      11 LYL4        0.0000 
     44 N         -55.2415  -11.7680   17.0650 N.am      2 SEC2        0.0000 
     45 N         -54.8350  -10.4260   16.9050 N.am     10 SEL2        0.0000 
     46 CA        -52.3298   -9.6980   16.0635 C.3       4 GLC5        0.0000 
     47 CA        -53.5770   -8.5760   17.7190 C.3      12 GLL5        0.0000 
     48 CA        -51.2870  -11.0730   15.1080 C.3       8 GLP5        0.0000 
@<TRIPOS>BOND
@<TRIPOS>SUBSTRUCTURE
     1 ALC1       27 GROUP        1 X    ALC  0     ROOT ALC X 1
     2 SEC2        1 GROUP        1 X    SEC  0     **** SEC X 2
     3 LYC4       32 GROUP        1 X    LYC  0     **** LYC X 4
     4 GLC5        8 GROUP        1 X    GLC  0     **** GLC X 6
     5 ALP1       29 GROUP        1 Y    ALP  0     ROOT ALP Y 8
     6 SEP2        3 GROUP        1 Y    SEP  0     **** SEP Y 9
     7 LYP4       34 GROUP        1 Y    LYP  0     **** LYP Y 11
     8 GLP5       10 GROUP        1 Y    GLP  0     **** GLP Y 13
     9 ALL1       28 GROUP        1 Z    ALL  0     ROOT ALL Z 15
    10 SEL2        2 GROUP        1 Z    SEL  0     **** SEL Z 16
    11 LYL4       33 GROUP        1 Z    LYL  0     **** LYL Z 18
    12 GLL5        9 GROUP        1 Z    GLL  0     **** GLL Z 20
@<TRIPOS>SET

