#    Name: 2qs2_UBF_2_ligand
#    Modification time : Mon Mar 24 22:41:45 2014

@<TRIPOS>MOLECULE
2qs2_UBF_2_ligand
   35    36     1     0     0
SMALL
NO_CHARGES


@<TRIPOS>ATOM
      1 O23       -55.9310   -1.2300   18.2150 O.co2     1 UBF602      0.0000 
      2 C22       -56.5820   -1.3620   17.1540 C.2       1 UBF602      0.0000 
      3 O24       -57.7670   -0.9980   17.0510 O.co2     1 UBF602      0.0000 
      4 C21       -55.9430   -1.9630   15.9560 C.2       1 UBF602      0.0000 
      5 S20       -56.5740   -1.7370   14.3780 S.3       1 UBF602      0.0000 
      6 C19       -55.3610   -2.6900   13.5730 C.2       1 UBF602      0.0000 
      7 C18       -54.4740   -3.1830   14.5360 C.2       1 UBF602      0.0000 
      8 C17       -54.7460   -2.8210   15.8690 C.2       1 UBF602      0.0000 
      9 C16       -53.9750   -3.1930   17.0920 C.3       1 UBF602      0.0000 
     10 N3        -53.0900   -4.3200   16.8440 N.am      1 UBF602      0.0000 
     11 C4        -53.5740   -5.6360   16.6800 C.2       1 UBF602      0.0000 
     12 O15       -54.8040   -5.8650   16.7260 O.2       1 UBF602      0.0000 
     13 C2        -51.7170   -4.0650   16.7920 C.2       1 UBF602      0.0000 
     14 O14       -51.2620   -2.9120   16.9380 O.2       1 UBF602      0.0000 
     15 C1        -50.8020   -5.2000   16.5650 C.2       1 UBF602      0.0000 
     16 BR13      -48.9550   -4.8200   16.5000 Br        1 UBF602      0.0000 
     17 C6        -51.3260   -6.4800   16.4080 C.2       1 UBF602      0.0000 
     18 N5        -52.6550   -6.7010   16.4660 N.am      1 UBF602      0.0000 
     19 C7        -53.1680   -8.0700   16.3190 C.3       1 UBF602      0.0000 
     20 C8        -53.5770   -8.5760   17.7190 C.3       1 UBF602      0.0000 
     21 N9        -52.5100   -8.3220   18.6810 N.4       1 UBF602      0.0000 
     22 C10       -53.9200  -10.0390   17.6710 C.2       1 UBF602      0.0000 
     23 O11       -53.2720  -10.8370   18.3890 O.co2     1 UBF602      0.0000 
     24 O12       -54.8350  -10.4260   16.9050 O.co2     1 UBF602      0.0000 
     25 H         -55.4508   -2.7439   12.6851 H         1 UBF602      0.0000 
     26 H         -53.6952   -3.7563   14.2971 H         1 UBF602      0.0000 
     27 H         -54.6858   -3.4335   17.9018 H         1 UBF602      0.0000 
     28 H         -53.3951   -2.3157   17.4281 H         1 UBF602      0.0000 
     29 H         -50.6638   -7.2688   16.2435 H         1 UBF602      0.0000 
     30 H         -52.4078   -8.7332   15.9288 H         1 UBF602      0.0000 
     31 H         -54.0421   -8.0943   15.6822 H         1 UBF602      0.0000 
     32 H         -54.4730   -8.0222   18.0087 H         1 UBF602      0.0000 
     33 H         -52.3034   -7.3465   18.7575 H         1 UBF602      0.0000 
     34 H         -52.7514   -8.6432   19.5967 H         1 UBF602      0.0000 
     35 H         -51.6604   -8.7823   18.4234 H         1 UBF602      0.0000 
@<TRIPOS>BOND
     1    2    1 ar   
     2    3    2 ar   
     3    4    2 1    
     4    5    4 1    
     5    8    4 2    
     6    6    5 1    
     7    7    6 2    
     8   25    6 1    
     9    8    7 1    
    10   26    7 1    
    11    9    8 1    
    12   10    9 1    
    13   27    9 1    
    14   28    9 1    
    15   11   10 am   
    16   13   10 am   
    17   12   11 2    
    18   18   11 am   
    19   14   13 2    
    20   15   13 1    
    21   16   15 1    
    22   17   15 2    
    23   18   17 1    
    24   29   17 1    
    25   19   18 1    
    26   20   19 1    
    27   30   19 1    
    28   31   19 1    
    29   21   20 1    
    30   22   20 1    
    31   32   20 1    
    32   33   21 1    
    33   34   21 1    
    34   35   21 1    
    35   23   22 ar   
    36   24   22 ar   
@<TRIPOS>SUBSTRUCTURE
     1 UBF602      1 GROUP   
@<TRIPOS>SET

