#    Name: 2r3i_SCF_1_INTS_M
#    Modification time : Mon Mar 24 23:05:06 2014

@<TRIPOS>MOLECULE
2r3i_SCF_1_INTS_M
   57     0     9     0     0
SMALL
NO_CHARGES


@<TRIPOS>ATOM
      1 CA         -0.3990   33.5595    8.7625 C.3       3 GLC5        0.0000 
      2 CA         -0.4540   31.5250    8.0940 C.3       9 GLL5        0.0000 
      3 CA         -0.3440   35.5940    9.4310 C.3       6 GLP5        0.0000 
      4 CA         -1.8870   33.0585    7.5270 C.3       3 GLC5        0.0000 
      5 CA         -3.3200   34.5920    6.9600 C.3       6 GLP5        0.0000 
      6 N           2.5660   32.3965    6.1215 N.am      2 SEC2        0.0000 
      7 N           1.4580   31.3630    6.8360 N.am      8 SEL2        0.0000 
      8 N           3.6740   33.4300    5.4070 N.am      5 SEP2        0.0000 
      9 N          -1.6365   29.2380    9.7060 N.am      2 SEC2        0.0000 
     10 N          -0.3280   29.2050    9.0170 N.am      8 SEL2        0.0000 
     11 N          -2.9450   29.2710   10.3950 N.am      5 SEP2        0.0000 
     12 CA          2.8315   28.9615    9.6165 C.3       3 GLC5        0.0000 
     13 CA          1.6660   28.0510    8.2540 C.3       9 GLL5        0.0000 
     14 CA          3.9970   29.8720   10.9790 C.3       6 GLP5        0.0000 
     15 CA          2.3465   30.4395    8.7605 C.3       3 GLC5        0.0000 
     16 CA          2.0470   29.1240    7.4950 C.3       9 GLL5        0.0000 
     17 CA          2.6460   31.7550   10.0260 C.3       6 GLP5        0.0000 
     18 O           4.0410   30.1095    6.1305 O.2       1 ALC1        0.0000 
     19 O           3.1980   29.2270    6.7960 O.2       7 ALL1        0.0000 
     20 O           4.8840   30.9920    5.4650 O.2       4 ALP1        0.0000 
     21 CA          4.1750   29.1610    9.0860 C.3       3 GLC5        0.0000 
     22 CA          4.3530   28.4500    7.1930 C.3       9 GLL5        0.0000 
     23 CA          3.5240   26.0320    3.3145 C.3       3 GLC5        0.0000 
     24 CA          5.0990   26.5090    4.0500 C.3       9 GLL5        0.0000 
     25 CA          1.9490   25.5550    2.5790 C.3       6 GLP5        0.0000 
     26 CA          6.1740   29.1465    4.7290 C.3       3 GLC5        0.0000 
     27 CA          4.8550   27.5940    4.9100 C.3       9 GLL5        0.0000 
     28 CA          7.4930   30.6990    4.5480 C.3       6 GLP5        0.0000 
     29 CA         -1.8985   29.0450   10.4590 C.3       3 GLC5        0.0000 
     30 CA         -0.2260   28.4050   11.8130 C.3       9 GLL5        0.0000 
     31 CA         -3.5710   29.6850    9.1050 C.3       6 GLP5        0.0000 
     32 CA          0.0770   28.6975   13.5555 C.3       3 GLC5        0.0000 
     33 CA          0.3800   28.9900   15.2980 C.3       6 GLP5        0.0000 
     34 CA         -0.1835   30.2610   12.2405 C.3       3 GLC5        0.0000 
     35 CA         -0.1410   32.1170   12.6680 C.3       6 GLP5        0.0000 
     36 CA         -0.9333   31.1288    6.4580 C.3       3 GLC5        0.0000 
     37 CA          0.0870   30.2500    8.2840 C.3       9 GLL5        0.0000 
     38 CA         -1.6830   31.3700    4.7270 C.3       6 GLP5        0.0000 
     39 CA         -1.8773   30.2862    8.6470 C.3       3 GLC5        0.0000 
     40 CA          1.2312   31.3212    9.1075 C.3       3 GLC5        0.0000 
     41 CA          1.3037   28.0957    6.1962 C.3       3 GLC5        0.0000 
     42 CA          0.7510   27.6040    4.5180 C.3       6 GLP5        0.0000 
     43 CA          6.4370   28.2922    7.1858 C.3       3 GLC5        0.0000 
     44 CA          8.4000   28.6910    7.6500 C.3       6 GLP5        0.0000 
     45 CA          2.7380   27.5348    5.0490 C.3       3 GLC5        0.0000 
     46 CA          4.5950   27.3370    6.2500 C.3       9 GLL5        0.0000 
     47 CA          3.0637   25.3453    5.1107 C.3       3 GLC5        0.0000 
     48 CA          4.5140   26.0190    6.6900 C.3       9 GLL5        0.0000 
     49 CA          1.4920   25.1880    3.9990 C.3       6 GLP5        0.0000 
     50 CA         -0.3003   23.6782    8.3810 C.3       3 GLC5        0.0000 
     51 CA          0.0210   25.6890    9.2610 C.3       9 GLL5        0.0000 
     52 CA         -0.4280   22.2220    7.1200 C.3       6 GLP5        0.0000 
     53 CA         -2.4977   24.0265   11.0012 C.3       3 GLC5        0.0000 
     54 CA         -0.3660   24.5800   10.0230 C.3       9 GLL5        0.0000 
     55 CA         -4.4620   23.3820   11.3100 C.3       6 GLP5        0.0000 
     56 CA         -1.9631   25.6445    8.8761 C.3       3 GLC5        0.0000 
     57 CA         -3.7660   25.8300    7.9720 C.3       6 GLP5        0.0000 
@<TRIPOS>BOND
@<TRIPOS>SUBSTRUCTURE
     1 ALC1       18 GROUP        1 X    ALC  0     ROOT ALC X 1
     2 SEC2        6 GROUP        1 X    SEC  0     **** SEC X 2
     3 GLC5        1 GROUP        1 X    GLC  0     **** GLC X 6
     4 ALP1       20 GROUP        1 Y    ALP  0     ROOT ALP Y 8
     5 SEP2        8 GROUP        1 Y    SEP  0     **** SEP Y 9
     6 GLP5        3 GROUP        1 Y    GLP  0     **** GLP Y 13
     7 ALL1       19 GROUP        1 Z    ALL  0     ROOT ALL Z 15
     8 SEL2        7 GROUP        1 Z    SEL  0     **** SEL Z 16
     9 GLL5        2 GROUP        1 Z    GLL  0     **** GLL Z 20
@<TRIPOS>SET

