#    Name: 2r3i_SCF_1_ligand
#    Modification time : Mon Mar 24 23:05:06 2014

@<TRIPOS>MOLECULE
2r3i_SCF_1_ligand
   38    41     1     0     0
SMALL
NO_CHARGES


@<TRIPOS>ATOM
      1 C01        -0.4540   31.5250    8.0940 C.2       1 SCF501      0.0000 
      2 C02         0.0870   30.2500    8.2840 C.2       1 SCF501      0.0000 
      3 N03         1.2260   30.1960    7.4700 N.pl3     1 SCF501      0.0000 
      4 N04         1.4580   31.3630    6.8360 N.2       1 SCF501      0.0000 
      5 C05         0.4510   32.1780    7.2150 C.2       1 SCF501      0.0000 
      6 N06        -0.3280   29.2050    9.0170 N.2       1 SCF501      0.0000 
      7 C07         0.4500   28.1340    8.9830 C.2       1 SCF501      0.0000 
      8 C08         1.6660   28.0510    8.2540 C.2       1 SCF501      0.0000 
      9 C09         2.0470   29.1240    7.4950 C.2       1 SCF501      0.0000 
     10 N10         3.1980   29.2270    6.7960 N.pl3     1 SCF501      0.0000 
     11 C11         0.0700   26.9870    9.8140 C.ar      1 SCF501      0.0000 
     12 C12         4.3530   28.4500    7.1930 C.3       1 SCF501      0.0000 
     13 C13         4.5950   27.3370    6.2500 C.ar      1 SCF501      0.0000 
     14 C14         4.5140   26.0190    6.6900 C.ar      1 SCF501      0.0000 
     15 C15         4.7570   24.9860    5.7550 C.ar      1 SCF501      0.0000 
     16 N16         5.0310   25.2190    4.4510 N.ar      1 SCF501      0.0000 
     17 C17         5.0990   26.5090    4.0500 C.ar      1 SCF501      0.0000 
     18 C18         4.8550   27.5940    4.9100 C.ar      1 SCF501      0.0000 
     19 C19         0.0210   25.6890    9.2610 C.ar      1 SCF501      0.0000 
     20 C20        -0.3660   24.5800   10.0230 C.ar      1 SCF501      0.0000 
     21 C21        -0.7010   24.7620   11.3620 C.ar      1 SCF501      0.0000 
     22 C22        -0.6320   26.0240   11.9530 C.ar      1 SCF501      0.0000 
     23 C23        -0.2700   27.1600   11.1820 C.ar      1 SCF501      0.0000 
     24 F24        -0.2260   28.4050   11.8130 F         1 SCF501      0.0000 
     25 H          -1.2241   31.8764    8.4523 H         1 SCF501      0.0000 
     26 H           0.3264   33.1050    6.9409 H         1 SCF501      0.0000 
     27 H           2.2241   27.2028    8.3105 H         1 SCF501      0.0000 
     28 H           3.2973   29.8408    5.9810 H         1 SCF501      0.0000 
     29 H           4.2093   28.0392    8.2079 H         1 SCF501      0.0000 
     30 H           5.2515   29.0907    7.2342 H         1 SCF501      0.0000 
     31 H           4.2882   25.7952    7.6503 H         1 SCF501      0.0000 
     32 H           4.7170   23.9978    6.1161 H         1 SCF501      0.0000 
     33 H           5.3448   26.7344    3.0502 H         1 SCF501      0.0000 
     34 H           4.8703   28.5450    4.5507 H         1 SCF501      0.0000 
     35 H           0.2785   25.5591    8.2671 H         1 SCF501      0.0000 
     36 H          -0.4009   23.6526    9.5995 H         1 SCF501      0.0000 
     37 H          -1.0052   23.9518   11.9273 H         1 SCF501      0.0000 
     38 H          -0.8421   26.1432   12.9498 H         1 SCF501      0.0000 
@<TRIPOS>BOND
     1    2    1 2    
     2    5    1 1    
     3   25    1 1    
     4    3    2 1    
     5    6    2 1    
     6    4    3 1    
     7    9    3 1    
     8    5    4 2    
     9   26    5 1    
    10    7    6 2    
    11    8    7 1    
    12   11    7 1    
    13    9    8 2    
    14   27    8 1    
    15   10    9 1    
    16   12   10 1    
    17   28   10 1    
    18   19   11 ar   
    19   23   11 ar   
    20   13   12 1    
    21   29   12 1    
    22   30   12 1    
    23   14   13 ar   
    24   18   13 ar   
    25   15   14 ar   
    26   31   14 1    
    27   16   15 ar   
    28   32   15 1    
    29   17   16 ar   
    30   18   17 ar   
    31   33   17 1    
    32   34   18 1    
    33   20   19 ar   
    34   35   19 1    
    35   21   20 ar   
    36   36   20 1    
    37   22   21 ar   
    38   37   21 1    
    39   23   22 ar   
    40   38   22 1    
    41   24   23 1    
@<TRIPOS>SUBSTRUCTURE
     1 SCF501      1 GROUP   
@<TRIPOS>SET

