#    Name: 4ju3_1O1_1_INTS_M
#    Modification time : Tue Mar 25 06:22:45 2014

@<TRIPOS>MOLECULE
4ju3_1O1_1_INTS_M
   62     0     6     0     0
SMALL
NO_CHARGES


@<TRIPOS>ATOM
      1 CA        -27.0700   45.5825   56.2750 C.3       2 GLC5        0.0000 
      2 CA        -27.4370   47.6420   55.5520 C.3       6 GLL5        0.0000 
      3 CA        -26.7030   43.5230   56.9980 C.3       4 GLP5        0.0000 
      4 CA        -26.2685   52.0745   55.5090 C.3       2 GLC5        0.0000 
      5 CA        -26.9660   50.0710   55.3480 C.3       6 GLL5        0.0000 
      6 CA        -25.5710   54.0780   55.6700 C.3       4 GLP5        0.0000 
      7 CA        -20.2080   47.7200   55.0545 C.3       2 GLC5        0.0000 
      8 CA        -21.9100   48.5930   55.1420 C.3       6 GLL5        0.0000 
      9 CA        -18.5060   46.8470   54.9670 C.3       4 GLP5        0.0000 
     10 CA        -20.2455   48.7160   54.2530 C.3       2 GLC5        0.0000 
     11 CA        -21.8660   50.0070   54.9540 C.3       6 GLL5        0.0000 
     12 CA        -18.6250   47.4250   53.5520 C.3       4 GLP5        0.0000 
     13 CA        -23.5645   50.1450   53.7855 C.3       2 GLC5        0.0000 
     14 CA        -22.7540   50.8320   55.7150 C.3       6 GLL5        0.0000 
     15 CA        -24.3750   49.4580   51.8560 C.3       4 GLP5        0.0000 
     16 N         -21.6805   44.6800   55.1060 N.am      1 SEC2        0.0000 
     17 N         -21.7780   45.8770   55.7670 N.am      5 SEL2        0.0000 
     18 N         -21.5830   43.4830   54.4450 N.am      3 SEP2        0.0000 
     19 N         -23.7650   44.6345   56.5710 N.am      1 SEC2        0.0000 
     20 N         -23.8090   45.8880   56.7050 N.am      5 SEL2        0.0000 
     21 N         -23.7210   43.3810   56.4370 N.am      3 SEP2        0.0000 
     22 CA        -23.0240   53.4685   52.5170 C.3       2 GLC5        0.0000 
     23 CA        -21.0310   52.7390   53.1280 C.3       6 GLL5        0.0000 
     24 CA        -25.0170   54.1980   51.9060 C.3       4 GLP5        0.0000 
     25 CA        -20.7075   52.6245   50.9680 C.3       2 GLC5        0.0000 
     26 CA        -20.3840   52.5100   48.8080 C.3       4 GLP5        0.0000 
     27 CA        -22.3980   54.3935   51.8370 C.3       2 GLC5        0.0000 
     28 CA        -20.6520   54.1310   53.2000 C.3       6 GLL5        0.0000 
     29 CA        -24.1440   54.6560   50.4740 C.3       4 GLP5        0.0000 
     30 CA        -20.8325   55.3875   51.5235 C.3       2 GLC5        0.0000 
     31 CA        -21.0130   56.6440   49.8470 C.3       4 GLP5        0.0000 
     32 CA        -18.0225   54.3555   53.0145 C.3       2 GLC5        0.0000 
     33 CA        -19.7660   54.5930   54.2540 C.3       6 GLL5        0.0000 
     34 CA        -16.2790   54.1180   51.7750 C.3       4 GLP5        0.0000 
     35 CA        -26.3960   49.1415   51.9435 C.3       2 GLC5        0.0000 
     36 CA        -28.4170   48.8250   52.0310 C.3       6 GLL5        0.0000 
     37 CA        -29.1945   48.9265   50.4100 C.3       2 GLC5        0.0000 
     38 CA        -29.9720   49.0280   48.7890 C.3       4 GLP5        0.0000 
     39 CA        -30.0660   49.2045   52.8505 C.3       2 GLC5        0.0000 
     40 CA        -31.7150   49.5840   53.6700 C.3       4 GLP5        0.0000 
     41 N         -18.7140   57.5740   53.4905 N.am      1 SEC2        0.0000 
     42 N         -18.2450   56.3280   54.5890 N.am      5 SEL2        0.0000 
     43 N         -19.1830   58.8200   52.3920 N.am      3 SEP2        0.0000 
     44 N         -21.8100   57.1960   54.1985 N.am      1 SEC2        0.0000 
     45 N         -20.4100   56.7490   54.0830 N.am      5 SEL2        0.0000 
     46 N         -23.2100   57.6430   54.3140 N.am      3 SEP2        0.0000 
     47 CA        -29.6038   48.0745   54.8015 C.3       2 GLC5        0.0000 
     48 CA        -31.5340   48.5080   54.7200 C.3       4 GLP5        0.0000 
     49 CA        -29.6055   48.9778   54.2230 C.3       2 GLC5        0.0000 
     50 CA        -27.4390   50.0530   54.0130 C.3       6 GLL5        0.0000 
     51 CA        -25.8483   49.6086   53.1965 C.3       2 GLC5        0.0000 
     52 CA        -27.9150   48.8420   53.4390 C.3       6 GLL5        0.0000 
     53 CA        -21.9135   49.1925   53.1975 C.3       2 GLC5        0.0000 
     54 CA        -21.9390   49.0850   51.3470 C.3       4 GLP5        0.0000 
     55 CA        -23.5290   52.2352   56.8210 C.3       2 GLC5        0.0000 
     56 CA        -23.8390   53.9280   57.4780 C.3       4 GLP5        0.0000 
     57 CA        -21.3588   50.6783   52.4820 C.3       2 GLC5        0.0000 
     58 CA        -20.5260   51.8040   54.1060 C.3       6 GLL5        0.0000 
     59 CA        -18.7548   50.8135   54.2450 C.3       2 GLC5        0.0000 
     60 CA        -17.4290   49.5920   53.8570 C.3       4 GLP5        0.0000 
     61 CA        -21.9115   54.9955   54.6840 C.3       2 GLC5        0.0000 
     62 CA        -23.6140   55.6290   55.6410 C.3       4 GLP5        0.0000 
@<TRIPOS>BOND
@<TRIPOS>SUBSTRUCTURE
     1 SEC2       16 GROUP        1 X    SEC  0     ROOT SEC X 2
     2 GLC5        1 GROUP        1 X    GLC  0     **** GLC X 6
     3 SEP2       18 GROUP        1 Y    SEP  0     ROOT SEP Y 9
     4 GLP5        3 GROUP        1 Y    GLP  0     **** GLP Y 13
     5 SEL2       17 GROUP        1 Z    SEL  0     ROOT SEL Z 16
     6 GLL5        2 GROUP        1 Z    GLL  0     **** GLL Z 20
@<TRIPOS>SET

