#    Name: 4ju3_1O1_1_ligand
#    Modification time : Tue Mar 25 06:22:45 2014

@<TRIPOS>MOLECULE
4ju3_1O1_1_ligand
   45    47     1     0     0
SMALL
NO_CHARGES


@<TRIPOS>ATOM
      1 C1        -27.4370   47.6420   55.5520 C.ar      1 1O1601      0.0000 
      2 C2        -27.9100   47.6400   54.2140 C.ar      1 1O1601      0.0000 
      3 C3        -27.9150   48.8420   53.4390 C.ar      1 1O1601      0.0000 
      4 C4        -27.4390   50.0530   54.0130 C.ar      1 1O1601      0.0000 
      5 C5        -26.9660   50.0710   55.3480 C.ar      1 1O1601      0.0000 
      6 C6        -26.9620   48.8590   56.1160 C.ar      1 1O1601      0.0000 
      7 S7        -26.3630   48.8770   57.8020 S.o2      1 1O1601      0.0000 
      8 O8        -26.4050   50.2600   58.2850 O.2       1 1O1601      0.0000 
      9 O9        -27.1730   47.8840   58.4950 O.2       1 1O1601      0.0000 
     10 N10       -24.7170   48.2860   57.7400 N.pl3     1 1O1601      0.0000 
     11 C11       -23.7400   48.8420   56.8080 C.ar      1 1O1601      0.0000 
     12 C12       -22.8500   47.9900   56.0400 C.ar      1 1O1601      0.0000 
     13 C13       -21.9100   48.5930   55.1420 C.ar      1 1O1601      0.0000 
     14 C14       -21.8660   50.0070   54.9540 C.ar      1 1O1601      0.0000 
     15 C15       -22.7540   50.8320   55.7150 C.ar      1 1O1601      0.0000 
     16 C16       -23.6840   50.2530   56.6130 C.ar      1 1O1601      0.0000 
     17 C17       -22.8800   46.5120   56.2120 C.2       1 1O1601      0.0000 
     18 O18       -21.7780   45.8770   55.7670 O.co2     1 1O1601      0.0000 
     19 O19       -23.8090   45.8880   56.7050 O.co2     1 1O1601      0.0000 
     20 O20       -20.9060   50.3940   54.0290 O.3       1 1O1601      0.0000 
     21 C21       -20.5260   51.8040   54.1060 C.ar      1 1O1601      0.0000 
     22 C22       -21.0310   52.7390   53.1280 C.ar      1 1O1601      0.0000 
     23 C23       -20.6520   54.1310   53.2000 C.ar      1 1O1601      0.0000 
     24 C24       -19.7660   54.5930   54.2540 C.ar      1 1O1601      0.0000 
     25 C25       -19.2620   53.6490   55.2310 C.ar      1 1O1601      0.0000 
     26 C26       -19.6350   52.2660   55.1600 C.ar      1 1O1601      0.0000 
     27 C27       -19.3880   55.9140   54.3310 C.2       1 1O1601      0.0000 
     28 C28       -28.4170   48.8250   52.0310 C.3       1 1O1601      0.0000 
     29 O29       -18.2450   56.3280   54.5890 O.co2     1 1O1601      0.0000 
     30 O30       -20.4100   56.7490   54.0830 O.co2     1 1O1601      0.0000 
     31 H         -27.4368   46.7909   56.0987 H         1 1O1601      0.0000 
     32 H         -28.2518   46.7725   53.7952 H         1 1O1601      0.0000 
     33 H         -27.4393   50.9099   53.4595 H         1 1O1601      0.0000 
     34 H         -26.6303   50.9317   55.7662 H         1 1O1601      0.0000 
     35 H         -24.5664   47.5700   58.3878 H         1 1O1601      0.0000 
     36 H         -21.2576   47.9949   54.6258 H         1 1O1601      0.0000 
     37 H         -22.7118   51.8466   55.6051 H         1 1O1601      0.0000 
     38 H         -24.3303   50.8565   57.1340 H         1 1O1601      0.0000 
     39 H         -21.6479   52.4204   52.3951 H         1 1O1601      0.0000 
     40 H         -21.0024   54.7878   52.5169 H         1 1O1601      0.0000 
     41 H         -18.6436   53.9739   55.9652 H         1 1O1601      0.0000 
     42 H         -19.2837   51.6041   55.8383 H         1 1O1601      0.0000 
     43 H         -28.3680   49.7299   51.6083 H         1 1O1601      0.0000 
     44 H         -27.8863   48.2033   51.4550 H         1 1O1601      0.0000 
     45 H         -29.3709   48.5291   51.9803 H         1 1O1601      0.0000 
@<TRIPOS>BOND
     1    2    1 ar   
     2    6    1 ar   
     3   31    1 1    
     4    3    2 ar   
     5   32    2 1    
     6    4    3 ar   
     7   28    3 1    
     8    5    4 ar   
     9   33    4 1    
    10    6    5 ar   
    11   34    5 1    
    12    7    6 1    
    13    8    7 2    
    14    9    7 2    
    15   10    7 1    
    16   11   10 1    
    17   35   10 1    
    18   12   11 ar   
    19   16   11 ar   
    20   13   12 ar   
    21   17   12 1    
    22   14   13 ar   
    23   36   13 1    
    24   15   14 ar   
    25   20   14 1    
    26   16   15 ar   
    27   37   15 1    
    28   38   16 1    
    29   18   17 ar   
    30   19   17 ar   
    31   21   20 1    
    32   22   21 ar   
    33   26   21 ar   
    34   23   22 ar   
    35   39   22 1    
    36   24   23 ar   
    37   40   23 1    
    38   25   24 ar   
    39   27   24 1    
    40   26   25 ar   
    41   41   25 1    
    42   42   26 1    
    43   29   27 ar   
    44   30   27 ar   
    45   43   28 1    
    46   44   28 1    
    47   45   28 1    
@<TRIPOS>SUBSTRUCTURE
     1 1O1601      1 GROUP   
@<TRIPOS>SET

