#    Name: 1ia1_TQ3_2_INTS_M
#    Modification time : Tue Mar 25 06:49:36 2014

@<TRIPOS>MOLECULE
1ia1_TQ3_2_INTS_M
   57     0     9     0     0
SMALL
NO_CHARGES


@<TRIPOS>ATOM
      1 CA          7.1670   33.6575   16.8580 C.3       3 GLC5        0.0000 
      2 CA          8.5400   34.6280   18.2160 C.3       9 GLL5        0.0000 
      3 CA          5.7940   32.6870   15.5000 C.3       6 GLP5        0.0000 
      4 CA          6.0620   33.0010   19.3380 C.3       3 GLC5        0.0000 
      5 CA          6.3290   34.9700   18.8520 C.3       9 GLL5        0.0000 
      6 CA          5.7950   31.0320   19.8240 C.3       6 GLP5        0.0000 
      7 CA          6.0615   33.8285   17.1760 C.3       3 GLC5        0.0000 
      8 CA          5.2745   36.0315   17.5120 C.3       3 GLC5        0.0000 
      9 CA          4.2200   37.0930   16.1720 C.3       6 GLP5        0.0000 
     10 CA          6.8655   35.2455   20.8390 C.3       3 GLC5        0.0000 
     11 CA          7.4020   35.5210   22.8260 C.3       6 GLP5        0.0000 
     12 N           5.7255   37.1450   19.6510 N.am      2 SEC2        0.0000 
     13 N           6.5800   36.2200   19.3310 N.am      8 SEL2        0.0000 
     14 N           4.8710   38.0700   19.9710 N.am      5 SEP2        0.0000 
     15 O           8.5645   32.4305   17.1295 O.2       1 ALC1        0.0000 
     16 O           9.2860   33.6710   17.6330 O.2       7 ALL1        0.0000 
     17 O           7.8430   31.1900   16.6260 O.2       4 ALP1        0.0000 
     18 O           9.2180   33.0100   16.0505 O.2       1 ALC1        0.0000 
     19 O           9.1500   32.3490   14.4680 O.2       4 ALP1        0.0000 
     20 CA          9.8610   37.9915   17.3855 C.3       3 GLC5        0.0000 
     21 CA         10.3120   36.4060   18.8230 C.3       9 GLL5        0.0000 
     22 CA          9.4100   39.5770   15.9480 C.3       6 GLP5        0.0000 
     23 O           4.1800   35.5460   19.4755 O.2       1 ALC1        0.0000 
     24 O           5.0510   34.5900   18.9540 O.2       7 ALL1        0.0000 
     25 O           3.3090   36.5020   19.9970 O.2       4 ALP1        0.0000 
     26 O           3.7630   33.4665   19.0890 O.2       1 ALC1        0.0000 
     27 O           2.4750   32.3430   19.2240 O.2       4 ALP1        0.0000 
     28 CA         11.3845   34.5530   19.9350 C.3       3 GLC5        0.0000 
     29 CA         11.6410   35.3450   18.2390 C.3       9 GLL5        0.0000 
     30 CA         11.1280   33.7610   21.6310 C.3       6 GLP5        0.0000 
     31 CA         11.9915   33.2970   18.3745 C.3       3 GLC5        0.0000 
     32 CA         12.3420   31.2490   18.5100 C.3       6 GLP5        0.0000 
     33 CA         11.0025   35.4015   16.4340 C.3       3 GLC5        0.0000 
     34 CA         10.3640   35.4580   14.6290 C.3       6 GLP5        0.0000 
     35 CA         14.8435   35.2695   20.7075 C.3       3 GLC5        0.0000 
     36 CA         14.1200   36.3210   18.9160 C.3       9 GLL5        0.0000 
     37 CA         15.5670   34.2180   22.4990 C.3       6 GLP5        0.0000 
     38 CA         14.3265   34.3275   19.2515 C.3       3 GLC5        0.0000 
     39 CA         14.5330   32.3340   19.5870 C.3       6 GLP5        0.0000 
     40 CA          8.3510   39.8480   21.0362 C.3       3 GLC5        0.0000 
     41 CA          9.5660   38.3970   19.9030 C.3       9 GLL5        0.0000 
     42 CA          7.7970   41.5210   22.1710 C.3       6 GLP5        0.0000 
     43 CA          7.8756   36.3231   21.1521 C.3       3 GLC5        0.0000 
     44 CA          8.2440   37.9530   19.9000 C.3       9 GLL5        0.0000 
     45 CA         10.0865   39.2138   18.3501 C.3       3 GLC5        0.0000 
     46 CA         10.4270   40.5360   17.0860 C.3       6 GLP5        0.0000 
     47 CA         14.4050   36.0267   16.5038 C.3       3 GLC5        0.0000 
     48 CA         12.9820   37.3800   17.0130 C.3       9 GLL5        0.0000 
     49 CA         15.8190   35.1220   15.4770 C.3       6 GLP5        0.0000 
     50 CA         11.9757   39.1808   16.9988 C.3       3 GLC5        0.0000 
     51 CA         15.2253   36.6587   16.3565 C.3       3 GLC5        0.0000 
     52 CA         14.0670   38.2710   16.8100 C.3       9 GLL5        0.0000 
     53 CA         16.8878   37.9078   18.8685 C.3       3 GLC5        0.0000 
     54 CA         15.1960   38.1200   17.6620 C.3       9 GLL5        0.0000 
     55 CA         18.5660   38.1450   19.5520 C.3       6 GLP5        0.0000 
     56 CA         15.2453   35.9465   17.1445 C.3       3 GLC5        0.0000 
     57 CA         15.2230   37.2210   18.7080 C.3       9 GLL5        0.0000 
@<TRIPOS>BOND
@<TRIPOS>SUBSTRUCTURE
     1 ALC1       15 GROUP        1 X    ALC  0     ROOT ALC X 1
     2 SEC2       12 GROUP        1 X    SEC  0     **** SEC X 2
     3 GLC5        1 GROUP        1 X    GLC  0     **** GLC X 6
     4 ALP1       17 GROUP        1 Y    ALP  0     ROOT ALP Y 8
     5 SEP2       14 GROUP        1 Y    SEP  0     **** SEP Y 9
     6 GLP5        3 GROUP        1 Y    GLP  0     **** GLP Y 13
     7 ALL1       16 GROUP        1 Z    ALL  0     ROOT ALL Z 15
     8 SEL2       13 GROUP        1 Z    SEL  0     **** SEL Z 16
     9 GLL5        2 GROUP        1 Z    GLL  0     **** GLL Z 20
@<TRIPOS>SET

