#    Name: 1ia1_TQ3_2_ligand
#    Modification time : Tue Mar 25 06:49:36 2014

@<TRIPOS>MOLECULE
1ia1_TQ3_2_ligand
   30    32     1     0     0
SMALL
NO_CHARGES


@<TRIPOS>ATOM
      1 C1          7.9580   36.7200   19.3390 C.ar      1 TQ3196      0.0000 
      2 C2          8.9510   35.8750   18.7740 C.ar      1 TQ3196      0.0000 
      3 C3          8.5400   34.6280   18.2160 C.ar      1 TQ3196      0.0000 
      4 N4          7.2920   34.2150   18.2740 N.ar      1 TQ3196      0.0000 
      5 C5          6.3290   34.9700   18.8520 C.ar      1 TQ3196      0.0000 
      6 N6          6.5800   36.2200   19.3310 N.ar      1 TQ3196      0.0000 
      7 N7          9.2860   33.6710   17.6330 N.pl3     1 TQ3196      0.0000 
      8 C8          8.2440   37.9530   19.9000 C.ar      1 TQ3196      0.0000 
      9 C9          9.5660   38.3970   19.9030 C.ar      1 TQ3196      0.0000 
     10 C12        10.5870   37.6080   19.3270 C.ar      1 TQ3196      0.0000 
     11 C13        10.3120   36.4060   18.8230 C.ar      1 TQ3196      0.0000 
     12 N14         5.0510   34.5900   18.9540 N.pl3     1 TQ3196      0.0000 
     13 S20        11.6410   35.3450   18.2390 S.3       1 TQ3196      0.0000 
     14 C22        13.0000   36.4830   18.0480 C.ar      1 TQ3196      0.0000 
     15 C23        12.9820   37.3800   17.0130 C.ar      1 TQ3196      0.0000 
     16 C24        14.0670   38.2710   16.8100 C.ar      1 TQ3196      0.0000 
     17 C25        15.1960   38.1200   17.6620 C.ar      1 TQ3196      0.0000 
     18 C26        15.2230   37.2210   18.7080 C.ar      1 TQ3196      0.0000 
     19 C27        14.1200   36.3210   18.9160 C.ar      1 TQ3196      0.0000 
     20 H           7.5059   38.5286   20.3042 H         1 TQ3196      0.0000 
     21 H           9.8073   39.3018   20.3244 H         1 TQ3196      0.0000 
     22 H          11.5488   38.0007   19.3137 H         1 TQ3196      0.0000 
     23 H           4.4305   35.2444   19.3861 H         1 TQ3196      0.0000 
     24 H           4.8304   33.6855   18.5890 H         1 TQ3196      0.0000 
     25 H          12.1818   37.4249   16.3633 H         1 TQ3196      0.0000 
     26 H          14.0412   38.9728   16.1019 H         1 TQ3196      0.0000 
     27 H          16.0278   38.7212   17.4736 H         1 TQ3196      0.0000 
     28 H          16.0172   37.1736   19.3518 H         1 TQ3196      0.0000 
     29 H          14.1430   35.6310   19.6226 H         1 TQ3196      0.0000 
     30 H           8.7063   33.2959   16.9097 H         1 TQ3196      0.0000 
@<TRIPOS>BOND
     1    2    1 ar   
     2    6    1 ar   
     3    8    1 ar   
     4    3    2 ar   
     5   11    2 ar   
     6    4    3 ar   
     7    7    3 1    
     8    5    4 ar   
     9    6    5 ar   
    10   12    5 1    
    11   30    7 1    
    12    9    8 ar   
    13   20    8 1    
    14   10    9 ar   
    15   21    9 1    
    16   11   10 ar   
    17   22   10 1    
    18   13   11 1    
    19   23   12 1    
    20   24   12 1    
    21   14   13 1    
    22   15   14 ar   
    23   19   14 ar   
    24   16   15 ar   
    25   25   15 1    
    26   17   16 ar   
    27   26   16 1    
    28   18   17 ar   
    29   27   17 1    
    30   19   18 ar   
    31   28   18 1    
    32   29   19 1    
@<TRIPOS>SUBSTRUCTURE
     1 TQ3196      1 GROUP   
@<TRIPOS>SET

