#    Name: 3a0i_AJI_1_INTS_M
#    Modification time : Tue Mar 25 11:26:26 2014

@<TRIPOS>MOLECULE
3a0i_AJI_1_INTS_M
   81     0     9     0     0
SMALL
NO_CHARGES


@<TRIPOS>ATOM
      1 CA         37.0075   18.1625   55.6740 C.3       3 GLC5        0.0000 
      2 CA         36.3870   19.2000   57.3020 C.3       9 GLL5        0.0000 
      3 CA         37.6280   17.1250   54.0460 C.3       6 GLP5        0.0000 
      4 CA         39.4590    9.9810   63.2970 C.3       3 GLC5        0.0000 
      5 CA         41.2480   10.6060   63.4200 C.3       9 GLL5        0.0000 
      6 CA         37.6700    9.3560   63.1740 C.3       6 GLP5        0.0000 
      7 CA         39.5310   11.8835   63.9745 C.3       3 GLC5        0.0000 
      8 CA         37.8140   13.1610   64.5290 C.3       6 GLP5        0.0000 
      9 CA         42.5430   11.4115   64.5380 C.3       3 GLC5        0.0000 
     10 CA         43.8380   12.2170   65.6560 C.3       6 GLP5        0.0000 
     11 CA         41.1135    9.4895   61.6960 C.3       3 GLC5        0.0000 
     12 CA         40.9790    8.3730   59.9720 C.3       6 GLP5        0.0000 
     13 CA         42.9885   16.0805   70.2630 C.3       3 GLC5        0.0000 
     14 CA         41.8780   16.8010   68.5170 C.3       9 GLL5        0.0000 
     15 CA         44.0990   15.3600   72.0090 C.3       6 GLP5        0.0000 
     16 CA         42.3365   18.0855   64.0405 C.3       3 GLC5        0.0000 
     17 CA         42.1430   17.9170   65.9990 C.3       9 GLL5        0.0000 
     18 CA         42.5300   18.2540   62.0820 C.3       6 GLP5        0.0000 
     19 CA         34.6160   20.9545   60.5730 C.3       3 GLC5        0.0000 
     20 CA         35.8440   19.3940   59.7760 C.3       9 GLL5        0.0000 
     21 CA         33.3880   22.5150   61.3700 C.3       6 GLP5        0.0000 
     22 CA         35.9695   16.8750   58.7895 C.3       3 GLC5        0.0000 
     23 CA         36.5830   18.8990   58.7370 C.3       9 GLL5        0.0000 
     24 CA         35.3560   14.8510   58.8420 C.3       6 GLP5        0.0000 
     25 CA         43.9210   15.8570   69.5490 C.3       3 GLC5        0.0000 
     26 CA         43.0950   17.3150   68.0910 C.3       9 GLL5        0.0000 
     27 CA         44.7470   14.3990   71.0070 C.3       6 GLP5        0.0000 
     28 CA         42.0905   15.8425   61.7310 C.3       3 GLC5        0.0000 
     29 CA         40.7960   14.1920   62.3440 C.3       9 GLL5        0.0000 
     30 CA         43.3850   17.4930   61.1180 C.3       6 GLP5        0.0000 
     31 CA         37.9755   15.0325   61.9710 C.3       3 GLC5        0.0000 
     32 CA         39.5330   16.0240   62.9540 C.3       9 GLL5        0.0000 
     33 CA         36.4180   14.0410   60.9880 C.3       6 GLP5        0.0000 
     34 N          37.6155   16.6585   58.5760 N.am      2 SEC2        0.0000 
     35 N          37.5840   18.0360   59.0890 N.am      8 SEL2        0.0000 
     36 N          37.6470   15.2810   58.0630 N.am      5 SEP2        0.0000 
     37 O          39.2730   16.3710   60.0300 O.2       1 ALC1        0.0000 
     38 O          38.5270   17.0300   61.0860 O.2       7 ALL1        0.0000 
     39 O          40.0190   15.7120   58.9740 O.2       4 ALP1        0.0000 
     40 CA         43.8445   18.9855   70.0085 C.3       3 GLC5        0.0000 
     41 CA         44.2250   17.2680   68.9050 C.3       9 GLL5        0.0000 
     42 CA         43.4640   20.7030   71.1120 C.3       6 GLP5        0.0000 
     43 CA         44.1370   15.8055   67.8140 C.3       3 GLC5        0.0000 
     44 CA         44.0490   14.3430   66.7230 C.3       6 GLP5        0.0000 
     45 CA         45.0740   17.2165   70.4175 C.3       3 GLC5        0.0000 
     46 CA         45.9230   17.1650   71.9300 C.3       6 GLP5        0.0000 
     47 CA         34.9360   18.2395   62.4230 C.3       3 GLC5        0.0000 
     48 CA         36.4830   18.7630   61.2270 C.3       9 GLL5        0.0000 
     49 CA         33.3890   17.7160   63.6190 C.3       6 GLP5        0.0000 
     50 CA         41.0585   17.8680   63.7010 C.3       3 GLC5        0.0000 
     51 CA         39.5870   17.4820   65.3200 C.3       9 GLL5        0.0000 
     52 CA         38.6470   16.0850   66.2995 C.3       3 GLC5        0.0000 
     53 CA         37.7070   14.6880   67.2790 C.3       6 GLP5        0.0000 
     54 CA         38.4910   17.6795   67.2445 C.3       3 GLC5        0.0000 
     55 CA         37.3950   17.8770   69.1690 C.3       6 GLP5        0.0000 
     56 CA         39.6005   19.4215   64.6925 C.3       3 GLC5        0.0000 
     57 CA         39.6140   21.3610   64.0650 C.3       6 GLP5        0.0000 
     58 CA         41.7115   13.7540   59.4870 C.3       3 GLC5        0.0000 
     59 CA         40.9900   13.0160   61.0190 C.3       9 GLL5        0.0000 
     60 CA         42.4330   14.4920   57.9550 C.3       6 GLP5        0.0000 
     61 CA         40.6705   11.8400   59.7655 C.3       3 GLC5        0.0000 
     62 CA         40.3510   10.6640   58.5120 C.3       6 GLP5        0.0000 
     63 CA         41.8360   14.7575   67.8632 C.3       3 GLC5        0.0000 
     64 CA         40.7820   16.8550   67.6620 C.3       9 GLL5        0.0000 
     65 CA         42.3420   12.6870   67.6370 C.3       6 GLP5        0.0000 
     66 CA         40.3770   17.7855   69.2858 C.3       3 GLC5        0.0000 
     67 CA         39.4240   18.7430   70.4820 C.3       6 GLP5        0.0000 
     68 CA         39.2825   15.9108   67.1567 C.3       3 GLC5        0.0000 
     69 CA         41.9047   16.5078   63.0385 C.3       3 GLC5        0.0000 
     70 CA         41.0980   15.2630   64.4470 C.3       9 GLL5        0.0000 
     71 CA         41.8107   13.7242   65.8160 C.3       3 GLC5        0.0000 
     72 CA         34.2862   18.2608   60.2727 C.3       3 GLC5        0.0000 
     73 CA         32.4090   17.4430   60.0440 C.3       6 GLP5        0.0000 
     74 CA         37.4597   20.3233   61.1417 C.3       3 GLC5        0.0000 
     75 CA         38.7560   21.5680   61.7820 C.3       6 GLP5        0.0000 
     76 CA         41.1732   17.1790   62.8257 C.3       3 GLC5        0.0000 
     77 CA         38.8153   14.6325   64.0493 C.3       3 GLC5        0.0000 
     78 CA         40.1000   16.1840   64.1850 C.3       9 GLL5        0.0000 
     79 CA         39.4259   13.8189   63.8492 C.3       3 GLC5        0.0000 
     80 CA         45.0490   18.5173   68.5441 C.3       3 GLC5        0.0000 
     81 CA         46.4020   19.6080   68.9050 C.3       6 GLP5        0.0000 
@<TRIPOS>BOND
@<TRIPOS>SUBSTRUCTURE
     1 ALC1       37 GROUP        1 X    ALC  0     ROOT ALC X 1
     2 SEC2       34 GROUP        1 X    SEC  0     **** SEC X 2
     3 GLC5        1 GROUP        1 X    GLC  0     **** GLC X 6
     4 ALP1       39 GROUP        1 Y    ALP  0     ROOT ALP Y 8
     5 SEP2       36 GROUP        1 Y    SEP  0     **** SEP Y 9
     6 GLP5        3 GROUP        1 Y    GLP  0     **** GLP Y 13
     7 ALL1       38 GROUP        1 Z    ALL  0     ROOT ALL Z 15
     8 SEL2       35 GROUP        1 Z    SEL  0     **** SEL Z 16
     9 GLL5        2 GROUP        1 Z    GLL  0     **** GLL Z 20
@<TRIPOS>SET

