#    Name: 3a0i_AJI_1_ligand
#    Modification time : Tue Mar 25 11:26:26 2014

@<TRIPOS>MOLECULE
3a0i_AJI_1_ligand
   45    48     1     0     0
SMALL
NO_CHARGES


@<TRIPOS>ATOM
      1 C1         36.3870   19.2000   57.3020 C.3       1 AJI501      0.0000 
      2 C2         41.2480   10.6060   63.4200 C.3       1 AJI501      0.0000 
      3 C3         41.8780   16.8010   68.5170 C.ar      1 AJI501      0.0000 
      4 C4         43.2390   17.8550   66.8320 C.ar      1 AJI501      0.0000 
      5 C5         40.7820   16.8550   67.6620 C.ar      1 AJI501      0.0000 
      6 C6         42.1430   17.9170   65.9990 C.ar      1 AJI501      0.0000 
      7 C7         41.0980   15.2630   64.4470 C.ar      1 AJI501      0.0000 
      8 C8         41.4610   14.2600   63.5430 C.ar      1 AJI501      0.0000 
      9 C9         35.8440   19.3940   59.7760 C.2       1 AJI501      0.0000 
     10 C10        43.4980   10.3620   62.4850 C.2       1 AJI501      0.0000 
     11 C11        36.5830   18.8990   58.7370 C.2       1 AJI501      0.0000 
     12 C12        43.0950   17.3150   68.0910 C.ar      1 AJI501      0.0000 
     13 C13        40.9340   17.4120   66.4070 C.ar      1 AJI501      0.0000 
     14 C14        40.1000   16.1840   64.1850 C.ar      1 AJI501      0.0000 
     15 C15        40.7960   14.1920   62.3440 C.ar      1 AJI501      0.0000 
     16 C16        39.5330   16.0240   62.9540 C.ar      1 AJI501      0.0000 
     17 C17        37.6390   17.8520   60.3780 C.2       1 AJI501      0.0000 
     18 C18        42.2760   11.9130   61.5240 C.2       1 AJI501      0.0000 
     19 C19        38.5330   16.9610   62.4820 C.2       1 AJI501      0.0000 
     20 N20        44.2310   10.9050   61.5260 N.2       1 AJI501      0.0000 
     21 N21        37.5840   18.0360   59.0890 N.2       1 AJI501      0.0000 
     22 N22        39.8550   15.0840   62.0510 N.ar      1 AJI501      0.0000 
     23 N23        43.4340   11.8660   60.9330 N.2       1 AJI501      0.0000 
     24 N24        38.5270   17.0300   61.0860 N.am      1 AJI501      0.0000 
     25 N25        42.2850   10.9300   62.5140 N.pl3     1 AJI501      0.0000 
     26 O26        37.9700   17.6820   63.2850 O.2       1 AJI501      0.0000 
     27 F27        44.2250   17.2680   68.9050 F         1 AJI501      0.0000 
     28 S28        36.4830   18.7630   61.2270 S.3       1 AJI501      0.0000 
     29 S29        39.5870   17.4820   65.3200 S.3       1 AJI501      0.0000 
     30 S30        40.9900   13.0160   61.0190 S.3       1 AJI501      0.0000 
     31 H          41.7868   16.3872   69.4481 H         1 AJI501      0.0000 
     32 H          44.1509   18.2068   66.5181 H         1 AJI501      0.0000 
     33 H          39.8759   16.4854   67.9632 H         1 AJI501      0.0000 
     34 H          42.2347   18.3470   65.0615 H         1 AJI501      0.0000 
     35 H          41.6083   15.3139   65.3615 H         1 AJI501      0.0000 
     36 H          42.2017   13.6021   63.7792 H         1 AJI501      0.0000 
     37 H          35.1355   19.9461   59.8748 H         1 AJI501      0.0000 
     38 H          43.7920    9.6466   63.0917 H         1 AJI501      0.0000 
     39 H          39.2070   16.4497   60.5500 H         1 AJI501      0.0000 
     40 H          36.4844   20.1767   57.1107 H         1 AJI501      0.0000 
     41 H          37.0513   18.7212   56.7280 H         1 AJI501      0.0000 
     42 H          35.4777   18.9288   56.9865 H         1 AJI501      0.0000 
     43 H          40.9758    9.6467   63.3452 H         1 AJI501      0.0000 
     44 H          41.5227   10.7596   64.3692 H         1 AJI501      0.0000 
     45 H          40.4288   11.1565   63.2592 H         1 AJI501      0.0000 
@<TRIPOS>BOND
     1   11    1 1    
     2   40    1 1    
     3   41    1 1    
     4   42    1 1    
     5   25    2 1    
     6   43    2 1    
     7   44    2 1    
     8   45    2 1    
     9    5    3 ar   
    10   12    3 ar   
    11   31    3 1    
    12    6    4 ar   
    13   12    4 ar   
    14   32    4 1    
    15   13    5 ar   
    16   33    5 1    
    17   13    6 ar   
    18   34    6 1    
    19    8    7 ar   
    20   14    7 ar   
    21   35    7 1    
    22   15    8 ar   
    23   36    8 1    
    24   11    9 2    
    25   28    9 1    
    26   37    9 1    
    27   20   10 2    
    28   25   10 1    
    29   38   10 1    
    30   21   11 1    
    31   27   12 1    
    32   29   13 1    
    33   16   14 ar   
    34   29   14 1    
    35   22   15 ar   
    36   30   15 1    
    37   19   16 1    
    38   22   16 ar   
    39   21   17 2    
    40   24   17 1    
    41   28   17 1    
    42   23   18 2    
    43   25   18 1    
    44   30   18 1    
    45   24   19 am   
    46   26   19 2    
    47   23   20 1    
    48   39   24 1    
@<TRIPOS>SUBSTRUCTURE
     1 AJI501      1 GROUP   
@<TRIPOS>SET

