#    Name: 3poo_S69_1_INTS_M
#    Modification time : Tue Mar 25 08:14:45 2014

@<TRIPOS>MOLECULE
3poo_S69_1_INTS_M
   77     0     9     0     0
SMALL
NO_CHARGES


@<TRIPOS>ATOM
      1 CA         24.7610    8.6805    1.0470 C.3       3 GLC5        0.0000 
      2 CA         24.0610   10.2920   -0.1000 C.3       9 GLL5        0.0000 
      3 CA         25.4610    7.0690    2.1940 C.3       6 GLP5        0.0000 
      4 N          25.7510   10.9120    2.2630 N.am      2 SEC2        0.0000 
      5 N          26.1940   10.2740    1.0600 N.am      8 SEL2        0.0000 
      6 N          25.3080   11.5500    3.4660 N.am      5 SEP2        0.0000 
      7 CA         22.8305   13.8785   -2.4690 C.3       3 GLC5        0.0000 
      8 CA         23.4950   13.9830   -0.3340 C.3       9 GLL5        0.0000 
      9 CA         22.1660   13.7740   -4.6040 C.3       6 GLP5        0.0000 
     10 CA         23.7430   15.4700   -1.5995 C.3       3 GLC5        0.0000 
     11 CA         23.9910   16.9570   -2.8650 C.3       6 GLP5        0.0000 
     12 CA         21.8445   16.0595    0.0300 C.3       3 GLC5        0.0000 
     13 CA         22.4730   14.1730    0.5650 C.3       9 GLL5        0.0000 
     14 CA         21.2160   17.9460   -0.5050 C.3       6 GLP5        0.0000 
     15 N          19.8365   14.3455    1.8850 N.am      2 SEC2        0.0000 
     16 N          20.9410   13.3370    2.1260 N.am      8 SEL2        0.0000 
     17 N          18.7320   15.3540    1.6440 N.am      5 SEP2        0.0000 
     18 CA         20.2405   12.4720    0.6025 C.3       3 GLC5        0.0000 
     19 CA         20.3780   12.2360    2.8210 C.3       9 GLL5        0.0000 
     20 CA         20.1030   12.7080   -1.6160 C.3       6 GLP5        0.0000 
     21 CA         18.4825   12.5825    2.2770 C.3       3 GLC5        0.0000 
     22 CA         16.5870   12.9290    1.7330 C.3       6 GLP5        0.0000 
     23 CA         20.4180   13.3710    3.9850 C.3       3 GLC5        0.0000 
     24 CA         20.4580   14.5060    5.1490 C.3       6 GLP5        0.0000 
     25 CA         29.3445   11.9110   -6.3840 C.3       3 GLC5        0.0000 
     26 CA         29.1330   10.4750   -5.2050 C.3       9 GLL5        0.0000 
     27 CA         29.5560   13.3470   -7.5630 C.3       6 GLP5        0.0000 
     28 CA         29.7515    8.3910   -5.3770 C.3       3 GLC5        0.0000 
     29 CA         30.3700    6.3070   -5.5490 C.3       6 GLP5        0.0000 
     30 CA         29.8200    9.7940   -6.8055 C.3       3 GLC5        0.0000 
     31 CA         30.5070    9.1130   -8.4060 C.3       6 GLP5        0.0000 
     32 CA         31.6920   12.0180   -5.5335 C.3       3 GLC5        0.0000 
     33 CA         31.4940   10.3900   -4.2370 C.3       9 GLL5        0.0000 
     34 CA         31.8900   13.6460   -6.8300 C.3       6 GLP5        0.0000 
     35 CA         30.4810   12.2375   -3.5830 C.3       3 GLC5        0.0000 
     36 CA         29.4680   14.0850   -2.9290 C.3       6 GLP5        0.0000 
     37 N          34.8665    9.8335   -4.1520 N.am      2 SEC2        0.0000 
     38 N          33.7000   10.3120   -3.3940 N.am      8 SEL2        0.0000 
     39 N          36.0330    9.3550   -4.9100 N.am      5 SEP2        0.0000 
     40 O          34.6565   10.4650   -2.4920 O.2       1 ALC1        0.0000 
     41 O          33.7000   10.3120   -3.3940 O.2       7 ALL1        0.0000 
     42 O          35.6130   10.6180   -1.5900 O.2       4 ALP1        0.0000 
     43 CA         33.2430    9.2435   -0.4950 C.3       3 GLC5        0.0000 
     44 CA         31.8720   10.2150   -1.8340 C.3       9 GLL5        0.0000 
     45 CA         34.6140    8.2720    0.8440 C.3       6 GLP5        0.0000 
     46 CA         29.9610   12.1450   -2.2705 C.3       3 GLC5        0.0000 
     47 CA         30.4540   10.2050   -1.6120 C.3       9 GLL5        0.0000 
     48 CA         21.9290   12.4343   -0.9090 C.3       3 GLC5        0.0000 
     49 CA         24.0130   12.6970   -0.5450 C.3       9 GLL5        0.0000 
     50 CA         30.7858    8.7308   -3.4837 C.3       3 GLC5        0.0000 
     51 CA         29.6080   10.2830   -2.6850 C.3       9 GLL5        0.0000 
     52 CA         31.7160    7.1310   -3.6180 C.3       6 GLP5        0.0000 
     53 CA         25.5310   13.5215   -1.0762 C.3       3 GLC5        0.0000 
     54 CA         27.3080   13.7030   -1.7130 C.3       6 GLP5        0.0000 
     55 CA         24.5385   13.1655    1.2893 C.3       3 GLC5        0.0000 
     56 CA         25.3230   12.9910    3.0180 C.3       6 GLP5        0.0000 
     57 CA         21.5435   13.3930   -0.7503 C.3       3 GLC5        0.0000 
     58 CA         21.1172   14.9988    2.2210 C.3       3 GLC5        0.0000 
     59 CA         20.0120   16.3570    3.5410 C.3       6 GLP5        0.0000 
     60 CA         23.7728   13.3158    1.9595 C.3       3 GLC5        0.0000 
     61 CA         21.1658   12.5820   -0.2383 C.3       3 GLC5        0.0000 
     62 CA         21.9720   13.1080    1.2370 C.3       9 GLL5        0.0000 
     63 CA         23.0990   14.8005    2.1236 C.3       3 GLC5        0.0000 
     64 CA         23.7200   16.0080    3.5710 C.3       6 GLP5        0.0000 
     65 CA         24.2275   12.1860    1.7746 C.3       3 GLC5        0.0000 
     66 CA         22.4850   11.8040    1.0420 C.3       9 GLL5        0.0000 
     67 CA         29.4811   12.2439   -3.6031 C.3       3 GLC5        0.0000 
     68 CA         32.5315   11.9367   -3.2750 C.3       3 GLC5        0.0000 
     69 CA         33.1390   13.5250   -2.8540 C.3       6 GLP5        0.0000 
     70 CA         31.8200    8.7398   -3.6570 C.3       3 GLC5        0.0000 
     71 CA         32.3540   10.3070   -3.1550 C.3       9 GLL5        0.0000 
     72 CA         32.1510   11.8675   -2.2885 C.3       3 GLC5        0.0000 
     73 CA         30.9140   11.4165   -0.0140 C.3       3 GLC5        0.0000 
     74 CA         30.6650   12.6230    1.6950 C.3       6 GLP5        0.0000 
     75 CA         31.4395    8.6705   -2.6705 C.3       3 GLC5        0.0000 
     76 CA         31.0435    8.3540   -1.1625 C.3       3 GLC5        0.0000 
     77 CA         30.9240    6.4980   -0.6020 C.3       6 GLP5        0.0000 
@<TRIPOS>BOND
@<TRIPOS>SUBSTRUCTURE
     1 ALC1       40 GROUP        1 X    ALC  0     ROOT ALC X 1
     2 SEC2        4 GROUP        1 X    SEC  0     **** SEC X 2
     3 GLC5        1 GROUP        1 X    GLC  0     **** GLC X 6
     4 ALP1       42 GROUP        1 Y    ALP  0     ROOT ALP Y 8
     5 SEP2        6 GROUP        1 Y    SEP  0     **** SEP Y 9
     6 GLP5        3 GROUP        1 Y    GLP  0     **** GLP Y 13
     7 ALL1       41 GROUP        1 Z    ALL  0     ROOT ALL Z 15
     8 SEL2        5 GROUP        1 Z    SEL  0     **** SEL Z 16
     9 GLL5        2 GROUP        1 Z    GLL  0     **** GLL Z 20
@<TRIPOS>SET

