#    Name: 3poo_S69_1_ligand
#    Modification time : Tue Mar 25 08:14:45 2014

@<TRIPOS>MOLECULE
3poo_S69_1_ligand
   41    42     1     0     0
SMALL
NO_CHARGES


@<TRIPOS>ATOM
      1 C1         23.4970   11.6240    0.1410 C.ar      1 S692001     0.0000 
      2 C2         24.0610   10.2920   -0.1000 C.3       1 S692001     0.0000 
      3 C3         25.5660   10.2430   -0.0310 C.2       1 S692001     0.0000 
      4 O4         26.1940   10.2740    1.0600 O.2       1 S692001     0.0000 
      5 N5         26.3080   10.1600   -1.2730 N.am      1 S692001     0.0000 
      6 N6         27.6400   10.1180   -1.1960 N.2       1 S692001     0.0000 
      7 C7         28.0940   10.2890   -2.5200 C.2       1 S692001     0.0000 
      8 C8         29.6080   10.2830   -2.6850 C.ar      1 S692001     0.0000 
      9 C9         24.0130   12.6970   -0.5450 C.ar      1 S692001     0.0000 
     10 C10        23.4950   13.9830   -0.3340 C.ar      1 S692001     0.0000 
     11 C11        22.4730   14.1730    0.5650 C.ar      1 S692001     0.0000 
     12 C12        21.9720   13.1080    1.2370 C.ar      1 S692001     0.0000 
     13 O13        20.9410   13.3370    2.1260 O.3       1 S692001     0.0000 
     14 C14        20.3780   12.2360    2.8210 C.3       1 S692001     0.0000 
     15 C15        22.4850   11.8040    1.0420 C.ar      1 S692001     0.0000 
     16 C16        30.1030   10.3780   -4.0140 C.ar      1 S692001     0.0000 
     17 C17        29.1330   10.4750   -5.2050 C.3       1 S692001     0.0000 
     18 C18        31.4940   10.3900   -4.2370 C.ar      1 S692001     0.0000 
     19 C19        32.3540   10.3070   -3.1550 C.ar      1 S692001     0.0000 
     20 O20        33.7000   10.3120   -3.3940 O.3       1 S692001     0.0000 
     21 C21        31.8720   10.2150   -1.8340 C.ar      1 S692001     0.0000 
     22 C22        30.4540   10.2050   -1.6120 C.ar      1 S692001     0.0000 
     23 O23        29.9980   10.1310   -0.3350 O.3       1 S692001     0.0000 
     24 H          23.7434    9.9193   -1.0977 H         1 S692001     0.0000 
     25 H          23.6524    9.5670    0.6366 H         1 S692001     0.0000 
     26 H          25.7853   10.1377   -2.1397 H         1 S692001     0.0000 
     27 H          27.5332   10.4052   -3.2995 H         1 S692001     0.0000 
     28 H          24.7821   12.5696   -1.2185 H         1 S692001     0.0000 
     29 H          23.8886   14.7761   -0.8584 H         1 S692001     0.0000 
     30 H          22.0963   15.1218    0.7209 H         1 S692001     0.0000 
     31 H          22.0924   11.0279    1.5741 H         1 S692001     0.0000 
     32 H          31.8533   10.4595   -5.1904 H         1 S692001     0.0000 
     33 H          32.5041   10.1565   -1.0485 H         1 S692001     0.0000 
     34 H          21.0585   11.7624    3.3801 H         1 S692001     0.0000 
     35 H          19.6418   12.5213    3.4346 H         1 S692001     0.0000 
     36 H          19.9915   11.5595    2.1942 H         1 S692001     0.0000 
     37 H          29.6198   10.5374   -6.0763 H         1 S692001     0.0000 
     38 H          28.5328    9.6771   -5.2611 H         1 S692001     0.0000 
     39 H          28.5443   11.2807   -5.1398 H         1 S692001     0.0000 
     40 H          34.1212   10.4575   -2.4988 H         1 S692001     0.0000 
     41 H          29.0013   10.1302   -0.4158 H         1 S692001     0.0000 
@<TRIPOS>BOND
     1    2    1 1    
     2    9    1 ar   
     3   15    1 ar   
     4    3    2 1    
     5   24    2 1    
     6   25    2 1    
     7    4    3 2    
     8    5    3 am   
     9    6    5 1    
    10   26    5 1    
    11    7    6 2    
    12    8    7 1    
    13   27    7 1    
    14   16    8 ar   
    15   22    8 ar   
    16   10    9 ar   
    17   28    9 1    
    18   11   10 ar   
    19   29   10 1    
    20   12   11 ar   
    21   30   11 1    
    22   13   12 1    
    23   15   12 ar   
    24   14   13 1    
    25   34   14 1    
    26   35   14 1    
    27   36   14 1    
    28   31   15 1    
    29   17   16 1    
    30   18   16 ar   
    31   37   17 1    
    32   38   17 1    
    33   39   17 1    
    34   19   18 ar   
    35   32   18 1    
    36   20   19 1    
    37   21   19 ar   
    38   40   20 1    
    39   22   21 ar   
    40   33   21 1    
    41   23   22 1    
    42   41   23 1    
@<TRIPOS>SUBSTRUCTURE
     1 S692001     1 GROUP   
@<TRIPOS>SET

