#    Name: 1TI6_10_CAVITY_N1_ALL.mol2
#    Modification time : Tue Mar 11 11:31:49 2014

@<TRIPOS>MOLECULE
1TI6_10_CAVITY_N1_ALL.mol2
   65     0     6     0     0
SMALL
NO_CHARGES


@<TRIPOS>ATOM
      1 NZ         56.4529 -105.6612   56.1494 N.2       3 LYS4        0.0000 
      2 N          64.2457 -103.9378   57.3953 N.2       2 ALA2        0.0000 
      3 CZ         60.0717 -103.2026   57.2028 C.ar      4 PHE5        0.0000 
      4 CA         60.9524 -104.3897   56.9479 C.3       5 GLY6        0.0000 
      5 NZ         58.8654 -104.0221   56.8517 N.2       3 LYS4        0.0000 
      6 CA         59.7461 -105.2093   56.5968 C.3       5 GLY6        0.0000 
      7 O          62.1587 -103.5702   57.2990 O.2       2 ALA2        0.0000 
      8 NZ         57.6591 -104.8416   56.5005 N.2       3 LYS4        0.0000 
      9 NZ         57.9847 -102.8350   57.1066 N.2       3 LYS4        0.0000 
     10 NZ         57.5205 -105.2528   57.9364 N.2       3 LYS4        0.0000 
     11 O          59.9330 -103.6138   58.6387 O.2       2 ALA2        0.0000 
     12 O          58.4012 -106.4400   57.6815 O.2       2 ALA2        0.0000 
     13 N          58.7268 -104.4333   58.2876 N.2       2 ALA2        0.0000 
     14 CA         63.3649 -102.7507   57.6502 C.3       5 GLY6        0.0000 
     15 CA         59.6075 -105.6204   58.0326 C.3       5 GLY6        0.0000 
     16 CA         59.2813 -102.7886   52.5441 C.3       5 GLY6        0.0000 
     17 N          60.1620 -103.9757   52.2892 N.2       2 ALA2        0.0000 
     18 CA         61.0427 -105.1628   52.0342 C.3       5 GLY6        0.0000 
     19 CA         58.9557 -104.7952   51.9380 C.3       5 GLY6        0.0000 
     20 CA         58.2619 -102.0126   54.2349 C.3       5 GLY6        0.0000 
     21 OG         59.1426 -103.1997   53.9800 O.2       1 SER1        0.0000 
     22 CA         60.0234 -104.3869   53.7250 C.3       5 GLY6        0.0000 
     23 CA         60.9041 -105.5740   53.4701 C.3       5 GLY6        0.0000 
     24 CZ         59.3295 -101.6043   56.0219 C.ar      4 PHE5        0.0000 
     25 CZ         60.2103 -102.7914   55.7670 C.ar      4 PHE5        0.0000 
     26 CA         61.4165 -101.9719   56.1181 C.3       5 GLY6        0.0000 
     27 DU         62.2973 -103.1590   55.8632 H         6 CUB7        0.0000 
     28 CA         63.1780 -104.3462   55.6083 C.3       5 GLY6        0.0000 
     29 CA         58.8171 -105.2064   53.3739 C.3       5 GLY6        0.0000 
     30 CA         61.0910 -103.9785   55.5120 C.3       5 GLY6        0.0000 
     31 CZ         60.6744 -100.3736   54.9372 C.ar      4 PHE5        0.0000 
     32 CA         61.5552 -101.5607   54.6822 C.3       5 GLY6        0.0000 
     33 DU         62.4359 -102.7478   54.4273 H         6 CUB7        0.0000 
     34 CZ         63.3167 -103.9350   54.1724 C.ar      4 PHE5        0.0000 
     35 N          64.8484 -101.1088   55.1296 N.2       2 ALA2        0.0000 
     36 CA         64.7098 -101.5200   56.5655 C.3       5 GLY6        0.0000 
     37 CZ         65.5906 -102.7071   56.3105 C.ar      4 PHE5        0.0000 
     38 CA         63.5036 -102.3395   56.2143 C.3       5 GLY6        0.0000 
     39 CZ         64.3843 -103.5266   55.9594 C.ar      4 PHE5        0.0000 
     40 OG         56.9170 -103.2433   55.3196 O.2       1 SER1        0.0000 
     41 OG         57.7977 -104.4305   55.0647 O.2       1 SER1        0.0000 
     42 NZ         58.1233 -102.4238   55.6708 N.2       3 LYS4        0.0000 
     43 CA         59.4682 -101.1931   54.5860 C.3       5 GLY6        0.0000 
     44 CA         60.3489 -102.3802   54.3311 C.3       5 GLY6        0.0000 
     45 DU         61.2296 -103.5674   54.0762 H         6 CUB7        0.0000 
     46 CA         62.1104 -104.7545   53.8212 C.3       5 GLY6        0.0000 
     47 N          62.2490 -104.3433   52.3854 N.2       2 ALA2        0.0000 
     48 O          63.1298 -105.5305   52.1305 O.2       2 ALA2        0.0000 
     49 CA         61.6938 -101.1495   53.2464 C.3       5 GLY6        0.0000 
     50 N          62.5745 -102.3367   52.9915 N.2       2 ALA2        0.0000 
     51 N          63.4553 -103.5238   52.7365 N.2       2 ALA2        0.0000 
     52 O          62.9001 -100.3300   53.5975 O.2       2 ALA2        0.0000 
     53 CA         63.7808 -101.5171   53.3426 C.3       5 GLY6        0.0000 
     54 CA         60.4875 -101.9690   52.8952 C.3       5 GLY6        0.0000 
     55 N          61.3683 -103.1562   52.6403 N.2       2 ALA2        0.0000 
     56 CA         59.0944 -104.3840   50.5022 C.3       5 GLY6        0.0000 
     57 CZ         64.5229 -103.1155   54.5235 C.ar      4 PHE5        0.0000 
     58 OG         59.0040 -103.6109   55.4158 O.2       1 SER1        0.0000 
     59 CA         59.8848 -104.7981   55.1609 C.3       5 GLY6        0.0000 
     60 CA         59.4199 -102.3774   51.1082 C.3       5 GLY6        0.0000 
     61 N          60.3006 -103.5645   50.8533 N.2       2 ALA2        0.0000 
     62 N          61.1814 -104.7517   50.5984 N.2       2 ALA2        0.0000 
     63 O          58.6785 -105.6176   54.8098 O.2       2 ALA2        0.0000 
     64 CA         62.7614 -100.7412   55.0334 C.3       5 GLY6        0.0000 
     65 CA         63.6422 -101.9283   54.7785 C.3       5 GLY6        0.0000 
@<TRIPOS>BOND
@<TRIPOS>SUBSTRUCTURE
     1 SER1       21 GROUP   
     2 ALA2        2 GROUP   
     3 LYS4        1 GROUP   
     4 PHE5        3 GROUP   
     5 GLY6        4 GROUP   
     6 CUB7       27 GROUP   
@<TRIPOS>SET

