#    Name: 1ti6_MGD_10_INTS_M
#    Modification time : Tue Mar 25 05:17:10 2014

@<TRIPOS>MOLECULE
1ti6_MGD_10_INTS_M
  122     0     9     0     0
SMALL
NO_CHARGES


@<TRIPOS>ATOM
      1 N          60.3325 -103.1850   48.1215 N.am      2 SEC2        0.0000 
      2 N          58.9170 -102.9980   48.8700 N.am      8 SEL2        0.0000 
      3 N          61.7480 -103.3720   47.3730 N.am      5 SEP2        0.0000 
      4 N          55.5050 -102.6830   50.5015 N.am      2 SEC2        0.0000 
      5 N          56.7550 -103.3060   50.2220 N.am      8 SEL2        0.0000 
      6 N          54.2550 -102.0600   50.7810 N.am      5 SEP2        0.0000 
      7 N          56.3135 -103.2960   51.6115 N.am      2 SEC2        0.0000 
      8 N          55.8720 -103.2860   53.0010 N.am      5 SEP2        0.0000 
      9 N          60.7970 -106.5140   47.5580 N.am      2 SEC2        0.0000 
     10 N          59.5280 -106.6890   48.0210 N.am      8 SEL2        0.0000 
     11 N          62.0660 -106.3390   47.0950 N.am      5 SEP2        0.0000 
     12 N          56.5170 -107.9980   48.3825 N.am      2 SEC2        0.0000 
     13 N          57.4300 -107.0290   48.2010 N.am      8 SEL2        0.0000 
     14 N          55.6040 -108.9670   48.5640 N.am      5 SEP2        0.0000 
     15 CA         61.0065 -105.9525   54.3710 C.3       3 GLC5        0.0000 
     16 CA         60.2660 -104.7670   52.7270 C.3       9 GLL5        0.0000 
     17 CA         61.7470 -107.1380   56.0150 C.3       6 GLP5        0.0000 
     18 CA         57.9845 -105.6535   52.9260 C.3       3 GLC5        0.0000 
     19 CA         59.1990 -104.2010   53.7090 C.3       9 GLL5        0.0000 
     20 CA         56.7700 -107.1060   52.1430 C.3       6 GLP5        0.0000 
     21 N          59.0820 -106.7425   55.1625 N.am      2 SEC2        0.0000 
     22 N          58.6010 -105.2600   54.5110 N.am      8 SEL2        0.0000 
     23 N          59.5630 -108.2250   55.8140 N.am      5 SEP2        0.0000 
     24 CA         59.0145 -101.4715   53.6945 C.3       3 GLC5        0.0000 
     25 CA         59.9920 -103.1770   54.5570 C.3       9 GLL5        0.0000 
     26 CA         58.0370  -99.7660   52.8320 C.3       6 GLP5        0.0000 
     27 CA         61.6085 -105.3920   55.2235 C.3       3 GLC5        0.0000 
     28 CA         61.4700 -103.6460   54.4320 C.3       9 GLL5        0.0000 
     29 N          63.6800  -99.4700   53.0965 N.am      2 SEC2        0.0000 
     30 N          63.4080 -100.5340   53.9950 N.am      8 SEL2        0.0000 
     31 N          63.9520  -98.4060   52.1980 N.am      5 SEP2        0.0000 
     32 CA         63.8700  -99.3605   55.0585 C.3       3 GLC5        0.0000 
     33 CA         64.1490 -101.2130   54.9710 C.3       9 GLL5        0.0000 
     34 CA         63.5910  -97.5080   55.1460 C.3       6 GLP5        0.0000 
     35 O          67.1355 -101.6070   56.9175 O.2       1 ALC1        0.0000 
     36 O          65.7990 -101.8370   56.6090 O.2       7 ALL1        0.0000 
     37 O          68.4720 -101.3770   57.2260 O.2       4 ALP1        0.0000 
     38 O          65.3115 -105.3215   58.1415 O.2       1 ALC1        0.0000 
     39 O          65.6420 -103.9120   57.7570 O.2       7 ALL1        0.0000 
     40 O          64.9810 -106.7310   58.5260 O.2       4 ALP1        0.0000 
     41 O          67.1495 -103.5800   58.0560 O.2       1 ALC1        0.0000 
     42 O          68.6570 -103.2480   58.3550 O.2       4 ALP1        0.0000 
     43 CA         55.8815 -103.9290   46.1980 C.3       3 GLC5        0.0000 
     44 CA         56.4890 -105.6310   45.7430 C.3       9 GLL5        0.0000 
     45 CA         55.2740 -102.2270   46.6530 C.3       6 GLP5        0.0000 
     46 CA         56.7155 -108.4950   45.2185 C.3       3 GLC5        0.0000 
     47 CA         56.3220 -106.4530   44.4670 C.3       9 GLL5        0.0000 
     48 CA         57.1090 -110.5370   45.9700 C.3       6 GLP5        0.0000 
     49 N          53.6685 -105.9680   44.4835 N.am      2 SEC2        0.0000 
     50 N          54.8730 -106.7970   44.4200 N.am      8 SEL2        0.0000 
     51 N          52.4640 -105.1390   44.5470 N.am      5 SEP2        0.0000 
     52 CA         59.5240 -104.9215   44.0140 C.3       3 GLC5        0.0000 
     53 CA         57.9990 -104.4990   42.9290 C.3       9 GLL5        0.0000 
     54 CA         61.0490 -105.3440   45.0990 C.3       6 GLP5        0.0000 
     55 CA         58.9105 -103.2660   44.0380 C.3       3 GLC5        0.0000 
     56 CA         59.8220 -102.0330   45.1470 C.3       6 GLP5        0.0000 
     57 CA         57.1160 -103.1790   44.3495 C.3       3 GLC5        0.0000 
     58 CA         56.2330 -101.8590   45.7700 C.3       6 GLP5        0.0000 
     59 CA         57.2075 -104.7905   39.2620 C.3       3 GLC5        0.0000 
     60 CA         56.3450 -104.7120   40.7590 C.3       9 GLL5        0.0000 
     61 CA         58.0700 -104.8690   37.7650 C.3       6 GLP5        0.0000 
     62 CA         54.9030 -105.8575   39.5730 C.3       3 GLC5        0.0000 
     63 CA         53.4610 -107.0030   38.3870 C.3       6 GLP5        0.0000 
     64 CA         54.0350 -106.8415   40.1710 C.3       3 GLC5        0.0000 
     65 CA         54.6090 -106.6800   41.9550 C.3       9 GLL5        0.0000 
     66 CA         54.9950 -108.5570   41.4340 C.3       3 GLC5        0.0000 
     67 CA         55.3810 -110.4340   40.9130 C.3       6 GLP5        0.0000 
     68 O          53.3295 -104.4250   41.4040 O.2       1 ALC1        0.0000 
     69 O          53.3780 -105.8220   41.8040 O.2       7 ALL1        0.0000 
     70 O          53.2810 -103.0280   41.0040 O.2       4 ALP1        0.0000 
     71 CA         52.8225 -106.8375   40.1090 C.3       3 GLC5        0.0000 
     72 CA         52.1840 -106.6720   41.8310 C.3       9 GLL5        0.0000 
     73 CA         52.1265 -104.6175   41.6420 C.3       3 GLC5        0.0000 
     74 CA         52.0690 -102.5630   41.4530 C.3       6 GLP5        0.0000 
     75 N          51.7880 -104.8580   39.1510 N.am      2 SEC2        0.0000 
     76 N          50.9320 -105.3560   40.2800 N.am      8 SEL2        0.0000 
     77 N          52.6440 -104.3600   38.0220 N.am      5 SEP2        0.0000 
     78 N          50.1165 -105.9270   39.0765 N.am      2 SEC2        0.0000 
     79 N          49.3010 -106.4980   37.8730 N.am      5 SEP2        0.0000 
     80 O          48.7480 -107.0075   40.4020 O.2       1 ALC1        0.0000 
     81 O          49.8270 -107.0240   41.4640 O.2       7 ALL1        0.0000 
     82 O          47.6690 -106.9910   39.3400 O.2       4 ALP1        0.0000 
     83 O          48.1835 -107.2075   42.4605 O.2       1 ALC1        0.0000 
     84 O          48.6570 -108.7150   42.6570 O.2       7 ALL1        0.0000 
     85 O          47.7100 -105.7000   42.2640 O.2       4 ALP1        0.0000 
     86 O          47.3985 -108.4710   42.5400 O.2       1 ALC1        0.0000 
     87 O          46.1400 -108.2270   42.4230 O.2       4 ALP1        0.0000 
     88 O          48.9110 -109.7530   43.6910 O.2       1 ALC1        0.0000 
     89 O          49.1650 -110.7910   44.7250 O.2       4 ALP1        0.0000 
     90 N          50.6580 -108.9440   44.5520 N.am      2 SEC2        0.0000 
     91 N          50.9410 -108.4490   43.0570 N.am      8 SEL2        0.0000 
     92 N          50.3750 -109.4390   46.0470 N.am      5 SEP2        0.0000 
     93 CA         53.2435 -109.4320   42.5055 C.3       3 GLC5        0.0000 
     94 CA         52.1050 -107.7480   42.7550 C.3       9 GLL5        0.0000 
     95 CA         54.3820 -111.1160   42.2560 C.3       6 GLP5        0.0000 
     96 CA         50.9735 -109.3490   41.7465 C.3       3 GLC5        0.0000 
     97 CA         49.8420 -110.9500   40.7380 C.3       6 GLP5        0.0000 
     98 O          53.5560 -109.0245   44.4890 O.2       1 ALC1        0.0000 
     99 O          53.2460 -108.1930   43.4490 O.2       7 ALL1        0.0000 
    100 O          53.8660 -109.8560   45.5290 O.2       4 ALP1        0.0000 
    101 CA         54.4755 -109.3520   42.7505 C.3       3 GLC5        0.0000 
    102 CA         54.5690 -107.5880   43.2450 C.3       9 GLL5        0.0000 
    103 CA         60.7638 -105.9828   50.8708 C.3       3 GLC5        0.0000 
    104 CA         60.1550 -104.1560   51.3380 C.3       9 GLL5        0.0000 
    105 CA         61.3170 -107.5040   49.7090 C.3       6 GLP5        0.0000 
    106 CA         59.1552 -106.0977   51.8822 C.3       3 GLC5        0.0000 
    107 CA         58.1000 -107.7340   51.7320 C.3       6 GLP5        0.0000 
    108 CA         65.1807 -101.8215   53.6292 C.3       3 GLC5        0.0000 
    109 CA         63.5620 -102.4490   55.2820 C.3       9 GLL5        0.0000 
    110 CA         66.5060 -101.8120   52.1320 C.3       6 GLP5        0.0000 
    111 CA         63.3783 -100.7400   56.6257 C.3       3 GLC5        0.0000 
    112 CA         62.9010  -99.6490   58.1250 C.3       6 GLP5        0.0000 
    113 CA         55.5102 -107.1175   46.4905 C.3       3 GLC5        0.0000 
    114 CA         54.6150 -108.1930   47.8760 C.3       6 GLP5        0.0000 
    115 CA         57.7078 -106.6137   41.8308 C.3       3 GLC5        0.0000 
    116 CA         56.6340 -105.6540   43.1640 C.3       9 GLL5        0.0000 
    117 CA         58.0990 -108.1510   40.6150 C.3       6 GLP5        0.0000 
    118 CA         57.0942 -106.6928   41.0023 C.3       3 GLC5        0.0000 
    119 CA         55.8340 -105.7570   42.0200 C.3       9 GLL5        0.0000 
    120 CA         56.3440 -107.6425   41.6075 C.3       3 GLC5        0.0000 
    121 CA         51.1162 -106.1810   43.5440 C.3       3 GLC5        0.0000 
    122 CA         50.0880 -105.1520   44.7950 C.3       6 GLP5        0.0000 
@<TRIPOS>BOND
@<TRIPOS>SUBSTRUCTURE
     1 ALC1       35 GROUP        1 X    ALC  0     ROOT ALC X 1
     2 SEC2        1 GROUP        1 X    SEC  0     **** SEC X 2
     3 GLC5       15 GROUP        1 X    GLC  0     **** GLC X 6
     4 ALP1       37 GROUP        1 Y    ALP  0     ROOT ALP Y 8
     5 SEP2        3 GROUP        1 Y    SEP  0     **** SEP Y 9
     6 GLP5       17 GROUP        1 Y    GLP  0     **** GLP Y 13
     7 ALL1       36 GROUP        1 Z    ALL  0     ROOT ALL Z 15
     8 SEL2        2 GROUP        1 Z    SEL  0     **** SEL Z 16
     9 GLL5       16 GROUP        1 Z    GLL  0     **** GLL Z 20
@<TRIPOS>SET

