#    Name: 1ti6_MGD_10_ligand
#    Modification time : Tue Mar 25 05:17:11 2014

@<TRIPOS>MOLECULE
1ti6_MGD_10_ligand
   69    74     1     0     0
SMALL
NO_CHARGES


@<TRIPOS>ATOM
      1 PB         58.0180 -103.9010   49.6600 P.3       1 MGD900      0.0000 
      2 O1B        58.9170 -102.9980   48.8700 O.co2     1 MGD900      0.0000 
      3 O2B        56.7550 -103.3060   50.2220 O.co2     1 MGD900      0.0000 
      4 O3B        57.4990 -105.1760   48.8710 O.3       1 MGD900      0.0000 
      5 O3A        57.6590 -106.2730   46.3110 O.3       1 MGD900      0.0000 
      6 PA         58.2740 -105.9160   47.6970 P.3       1 MGD900      0.0000 
      7 O1A        59.5280 -106.6890   48.0210 O.co2     1 MGD900      0.0000 
      8 O2A        57.4300 -107.0290   48.2010 O.co2     1 MGD900      0.0000 
      9 O5'        58.7790 -104.5280   50.9510 O.3       1 MGD900      0.0000 
     10 C5'        60.1550 -104.1560   51.3380 C.3       1 MGD900      0.0000 
     11 C4'        60.2660 -104.7670   52.7270 C.3       1 MGD900      0.0000 
     12 O4'        61.5520 -104.2560   53.1180 O.3       1 MGD900      0.0000 
     13 C3'        59.1990 -104.2010   53.7090 C.3       1 MGD900      0.0000 
     14 O3'        58.6010 -105.2600   54.5110 O.3       1 MGD900      0.0000 
     15 C2'        59.9920 -103.1770   54.5570 C.3       1 MGD900      0.0000 
     16 O2'        59.5170 -102.9480   55.8720 O.3       1 MGD900      0.0000 
     17 C1'        61.4700 -103.6460   54.4320 C.3       1 MGD900      0.0000 
     18 N9         62.4200 -102.5370   54.4670 N.pl3     1 MGD900      0.0000 
     19 C8         62.3910 -101.3400   53.7140 C.2       1 MGD900      0.0000 
     20 N7         63.4080 -100.5340   53.9950 N.2       1 MGD900      0.0000 
     21 C5         64.1490 -101.2130   54.9710 C.2       1 MGD900      0.0000 
     22 C6         65.3610 -100.8550   55.6730 C.2       1 MGD900      0.0000 
     23 O6         66.0450  -99.7960   55.5370 O.2       1 MGD900      0.0000 
     24 N1         65.7990 -101.8370   56.6090 N.am      1 MGD900      0.0000 
     25 C2         65.1130 -103.0470   56.8290 C.2       1 MGD900      0.0000 
     26 N2         65.6420 -103.9120   57.7570 N.pl3     1 MGD900      0.0000 
     27 N3         63.9760 -103.4060   56.1810 N.2       1 MGD900      0.0000 
     28 C4         63.5620 -102.4490   55.2820 C.2       1 MGD900      0.0000 
     29 C10        56.4890 -105.6310   45.7430 C.3       1 MGD900      0.0000 
     30 C11        56.3220 -106.4530   44.4670 C.3       1 MGD900      0.0000 
     31 O11        54.8730 -106.7970   44.4200 O.3       1 MGD900      0.0000 
     32 C12        56.6340 -105.6540   43.1640 C.2       1 MGD900      0.0000 
     33 S12        57.9990 -104.4990   42.9290 S.3       1 MGD900      0.0000 
     34 C13        55.8340 -105.7570   42.0200 C.2       1 MGD900      0.0000 
     35 S13        56.3450 -104.7120   40.7590 S.3       1 MGD900      0.0000 
     36 C14        54.6090 -106.6800   41.9550 C.3       1 MGD900      0.0000 
     37 N15        53.3780 -105.8220   41.8040 N.pl3     1 MGD900      0.0000 
     38 C16        52.1840 -106.6720   41.8310 C.2       1 MGD900      0.0000 
     39 C17        51.0100 -106.2810   41.1340 C.2       1 MGD900      0.0000 
     40 O17        50.9320 -105.3560   40.2800 O.2       1 MGD900      0.0000 
     41 N18        49.8270 -107.0240   41.4640 N.am      1 MGD900      0.0000 
     42 C19        49.8250 -108.0580   42.3960 C.2       1 MGD900      0.0000 
     43 N19        48.6570 -108.7150   42.6570 N.pl3     1 MGD900      0.0000 
     44 N20        50.9410 -108.4490   43.0570 N.2       1 MGD900      0.0000 
     45 C21        52.1050 -107.7480   42.7550 C.2       1 MGD900      0.0000 
     46 N22        53.2460 -108.1930   43.4490 N.pl3     1 MGD900      0.0000 
     47 C23        54.5690 -107.5880   43.2450 C.3       1 MGD900      0.0000 
     48 H          60.2608 -103.1039   51.4087 H         1 MGD900      0.0000 
     49 H          60.8677 -104.6094   50.6980 H         1 MGD900      0.0000 
     50 H          60.2451 -105.7900   52.6807 H         1 MGD900      0.0000 
     51 H          58.4880 -103.6619   53.1256 H         1 MGD900      0.0000 
     52 H          59.9586 -102.2307   53.9417 H         1 MGD900      0.0000 
     53 H          61.6573 -104.3631   55.1841 H         1 MGD900      0.0000 
     54 H          61.6727 -101.1658   53.0615 H         1 MGD900      0.0000 
     55 H          66.6666 -101.6441   57.1513 H         1 MGD900      0.0000 
     56 H          66.6301 -103.8543   57.8992 H         1 MGD900      0.0000 
     57 H          64.9926 -104.5235   58.2090 H         1 MGD900      0.0000 
     58 H          56.6783 -104.6259   45.4786 H         1 MGD900      0.0000 
     59 H          55.6328 -105.7624   46.3476 H         1 MGD900      0.0000 
     60 H          56.8980 -107.3249   44.5056 H         1 MGD900      0.0000 
     61 H          54.7178 -107.3210   41.0987 H         1 MGD900      0.0000 
     62 H          53.3976 -104.9074   41.7107 H         1 MGD900      0.0000 
     63 H          48.9451 -106.7657   40.9775 H         1 MGD900      0.0000 
     64 H          47.8177 -108.1847   42.5374 H         1 MGD900      0.0000 
     65 H          48.7435 -109.6687   42.9448 H         1 MGD900      0.0000 
     66 H          53.1781 -108.9641   44.1254 H         1 MGD900      0.0000 
     67 H          55.3118 -108.3603   43.1152 H         1 MGD900      0.0000 
     68 H          58.4227 -104.8409   55.4013 H         1 MGD900      0.0000 
     69 H          60.2860 -103.1777   56.4685 H         1 MGD900      0.0000 
@<TRIPOS>BOND
     1    2    1 ar   
     2    3    1 ar   
     3    4    1 1    
     4    9    1 1    
     5    6    4 1    
     6    6    5 1    
     7   29    5 1    
     8    7    6 ar   
     9    8    6 ar   
    10   10    9 1    
    11   11   10 1    
    12   48   10 1    
    13   49   10 1    
    14   12   11 1    
    15   13   11 1    
    16   50   11 1    
    17   17   12 1    
    18   14   13 1    
    19   15   13 1    
    20   51   13 1    
    21   68   14 1    
    22   16   15 1    
    23   17   15 1    
    24   52   15 1    
    25   69   16 1    
    26   18   17 1    
    27   53   17 1    
    28   19   18 1    
    29   28   18 1    
    30   20   19 2    
    31   54   19 1    
    32   21   20 1    
    33   22   21 1    
    34   28   21 2    
    35   23   22 2    
    36   24   22 am   
    37   25   24 1    
    38   55   24 1    
    39   26   25 1    
    40   27   25 2    
    41   56   26 1    
    42   57   26 1    
    43   28   27 1    
    44   30   29 1    
    45   58   29 1    
    46   59   29 1    
    47   31   30 1    
    48   32   30 1    
    49   60   30 1    
    50   47   31 1    
    51   33   32 1    
    52   34   32 2    
    53   35   34 1    
    54   36   34 1    
    55   37   36 1    
    56   47   36 1    
    57   61   36 1    
    58   38   37 1    
    59   62   37 1    
    60   39   38 1    
    61   45   38 2    
    62   40   39 2    
    63   41   39 am   
    64   42   41 1    
    65   63   41 1    
    66   43   42 1    
    67   44   42 2    
    68   64   43 1    
    69   65   43 1    
    70   45   44 1    
    71   46   45 1    
    72   47   46 1    
    73   66   46 1    
    74   67   47 1    
@<TRIPOS>SUBSTRUCTURE
     1 MGD900      1 GROUP   
@<TRIPOS>SET

