#    Name: 4kni_E1E_1_INTS_M
#    Modification time : Tue Mar 25 08:05:53 2014

@<TRIPOS>MOLECULE
4kni_E1E_1_INTS_M
   47     0    12     0     0
SMALL
NO_CHARGES


@<TRIPOS>ATOM
      1 CA         -3.5780    2.7490   17.3420 C.3       4 GLC5        0.0000 
      2 CA         -4.9710    2.1360   15.8480 C.3      12 GLL5        0.0000 
      3 CA         -2.1850    3.3620   18.8360 C.3       8 GLP5        0.0000 
      4 CA         -2.5080    0.3865   14.5600 C.3       4 GLC5        0.0000 
      5 CA         -3.9930    1.7890   14.8900 C.3      12 GLL5        0.0000 
      6 CA         -1.0230   -1.0160   14.2300 C.3       8 GLP5        0.0000 
      7 CA         -7.9615    4.7790   16.4245 C.3       4 GLC5        0.0000 
      8 CA         -6.5620    3.8820   17.2580 C.3      12 GLL5        0.0000 
      9 CA         -9.3610    5.6760   15.5910 C.3       8 GLP5        0.0000 
     10 CA         -6.7025    5.5010   17.9980 C.3       4 GLC5        0.0000 
     11 CA         -6.8430    7.1200   18.7380 C.3       8 GLP5        0.0000 
     12 CA         -7.9555    3.5005   18.3135 C.3       4 GLC5        0.0000 
     13 CA         -9.3490    3.1190   19.3690 C.3       8 GLP5        0.0000 
     14 CA         -6.3955    4.2080   19.4380 C.3       4 GLC5        0.0000 
     15 CA         -6.2290    4.5340   21.6180 C.3       8 GLP5        0.0000 
     16 CA         -7.3980    3.3600   15.4755 C.3       4 GLC5        0.0000 
     17 CA         -5.3380    3.4830   16.0700 C.3      12 GLL5        0.0000 
     18 CA         -9.4580    3.2370   14.8810 C.3       8 GLP5        0.0000 
     19 O          -4.2935   -1.4690   16.8630 O.2       1 ALC1        0.0000 
     20 O          -5.0300   -0.6720   16.1440 O.2       9 ALL1        0.0000 
     21 O          -3.5570   -2.2660   17.5820 O.2       5 ALP1        0.0000 
     22 Zn         -5.7790   -1.2190   15.7145 Zn        3 ZIC7        0.0000 
     23 Zn         -5.0300   -0.6720   16.1440 Zn       11 ZIL7        0.0000 
     24 Zn         -6.5280   -1.7660   15.2850 Zn        7 ZIP7        0.0000 
     25 N          -3.9480    0.5455   18.6950 N.am      2 SEC2        0.0000 
     26 N          -5.2350    0.9220   18.3090 N.am     10 SEL2        0.0000 
     27 N          -2.6610    0.1690   19.0810 N.am      6 SEP2        0.0000 
     28 CA         -1.7080    1.4535   14.4495 C.3       4 GLC5        0.0000 
     29 CA         -3.2980    2.8250   14.1970 C.3      12 GLL5        0.0000 
     30 CA         -0.1180    0.0820   14.7020 C.3       8 GLP5        0.0000 
     31 CA         -8.1215    5.5295   14.2105 C.3       4 GLC5        0.0000 
     32 CA         -6.8820    5.3830   12.8300 C.3      12 GLL5        0.0000 
     33 CA         -6.2420    6.9615   13.7935 C.3       4 GLC5        0.0000 
     34 CA         -5.6020    8.5400   14.7570 C.3       8 GLP5        0.0000 
     35 CA         -5.8030   10.1095   11.8180 C.3       4 GLC5        0.0000 
     36 CA         -6.0470    9.4680    9.8820 C.3      12 GLL5        0.0000 
     37 CA         -5.5590   10.7510   13.7540 C.3       8 GLP5        0.0000 
     38 CA         -4.8360    4.5258   17.7585 C.3       4 GLC5        0.0000 
     39 CA         -3.7220    5.3690   18.8530 C.3       8 GLP5        0.0000 
     40 CA         -2.7524    4.4091   15.9806 C.3       4 GLC5        0.0000 
     41 CA         -4.6610    4.5110   15.3810 C.3      12 GLL5        0.0000 
     42 CA         -1.7840    5.2310   17.4060 C.3       8 GLP5        0.0000 
     43 CA         -8.0516    5.8277   11.3510 C.3       4 GLC5        0.0000 
     44 CA         -6.5020    7.4360   11.3480 C.3      12 GLL5        0.0000 
     45 CA         -9.6290    5.0040   10.7920 C.3       8 GLP5        0.0000 
     46 CA         -7.7170    9.5539   10.8428 C.3       4 GLC5        0.0000 
     47 CA         -9.3870   10.4390   11.2330 C.3       8 GLP5        0.0000 
@<TRIPOS>BOND
@<TRIPOS>SUBSTRUCTURE
     1 ALC1       19 GROUP        1 X    ALC  0     ROOT ALC X 1
     2 SEC2       25 GROUP        1 X    SEC  0     **** SEC X 2
     3 ZIC7       22 GROUP        1 X    ZIC  0     **** ZIC X 5
     4 GLC5        1 GROUP        1 X    GLC  0     **** GLC X 6
     5 ALP1       21 GROUP        1 Y    ALP  0     ROOT ALP Y 8
     6 SEP2       27 GROUP        1 Y    SEP  0     **** SEP Y 9
     7 ZIP7       24 GROUP        1 Y    ZIP  0     **** ZIP Y 12
     8 GLP5        3 GROUP        1 Y    GLP  0     **** GLP Y 13
     9 ALL1       20 GROUP        1 Z    ALL  0     ROOT ALL Z 15
    10 SEL2       26 GROUP        1 Z    SEL  0     **** SEL Z 16
    11 ZIL7       23 GROUP        1 Z    ZIL  0     **** ZIL Z 19
    12 GLL5        2 GROUP        1 Z    GLL  0     **** GLL Z 20
@<TRIPOS>SET

