#    Name: 4kni_E1E_1_ligand
#    Modification time : Tue Mar 25 08:05:53 2014

@<TRIPOS>MOLECULE
4kni_E1E_1_ligand
   36    37     1     0     0
SMALL
NO_CHARGES


@<TRIPOS>ATOM
      1 C2         -4.6610    4.5110   15.3810 C.ar      1 E1E305      0.0000 
      2 C4         -4.9710    2.1360   15.8480 C.ar      1 E1E305      0.0000 
      3 C5         -3.9930    1.7890   14.8900 C.ar      1 E1E305      0.0000 
      4 CL1        -6.5620    3.8820   17.2580 Cl        1 E1E305      0.0000 
      5 C3         -5.3380    3.4830   16.0700 C.ar      1 E1E305      0.0000 
      6 S6         -5.7490    0.7870   16.7790 S.o2      1 E1E305      0.0000 
      7 O8         -7.3190    0.8280   16.5880 O.2       1 E1E305      0.0000 
      8 N11        -5.0300   -0.6720   16.1440 N.pl3     1 E1E305      0.0000 
      9 O7         -5.2350    0.9220   18.3090 O.2       1 E1E305      0.0000 
     10 C22        -3.6260    4.1880   14.4460 C.ar      1 E1E305      0.0000 
     11 C1         -3.2980    2.8250   14.1970 C.ar      1 E1E305      0.0000 
     12 C9         -2.8360    5.2590   13.7730 C.2       1 E1E305      0.0000 
     13 O12        -2.6360    6.3170   14.4250 O.2       1 E1E305      0.0000 
     14 C10        -2.1370    5.0870   12.4620 C.3       1 E1E305      0.0000 
     15 S13        -2.0540    6.7070   11.6580 S.3       1 E1E305      0.0000 
     16 C14        -3.8120    7.0040   11.5410 C.ar      1 E1E305      0.0000 
     17 N17        -4.6780    6.1550   12.2110 N.ar      1 E1E305      0.0000 
     18 C18        -6.0110    6.3510   12.1140 C.ar      1 E1E305      0.0000 
     19 C21        -6.8820    5.3830   12.8300 C.3       1 E1E305      0.0000 
     20 C19        -6.5020    7.4360   11.3480 C.ar      1 E1E305      0.0000 
     21 C16        -5.5920    8.3030   10.6980 C.ar      1 E1E305      0.0000 
     22 N15        -4.2560    8.0770   10.8050 N.ar      1 E1E305      0.0000 
     23 C20        -6.0470    9.4680    9.8820 C.3       1 E1E305      0.0000 
     24 H          -4.9020    5.4877   15.5424 H         1 E1E305      0.0000 
     25 H          -3.7825    0.8180   14.6923 H         1 E1E305      0.0000 
     26 H          -2.5712    2.5891   13.5279 H         1 E1E305      0.0000 
     27 H          -2.6709    4.5144   11.7509 H         1 E1E305      0.0000 
     28 H          -1.1150    4.8261   12.5396 H         1 E1E305      0.0000 
     29 H          -7.5043    7.5911   11.2656 H         1 E1E305      0.0000 
     30 H          -6.7456    4.4480   12.5026 H         1 E1E305      0.0000 
     31 H          -6.7019    5.3783   13.8136 H         1 E1E305      0.0000 
     32 H          -7.8515    5.5969   12.7106 H         1 E1E305      0.0000 
     33 H          -5.2762    9.9738    9.4946 H         1 E1E305      0.0000 
     34 H          -6.6245    9.1827    9.1171 H         1 E1E305      0.0000 
     35 H          -6.5798   10.1167   10.4255 H         1 E1E305      0.0000 
     36 H          -4.1998   -0.8078   16.6846 H         1 E1E305      0.0000 
@<TRIPOS>BOND
     1    5    1 ar   
     2   10    1 ar   
     3   24    1 1    
     4    3    2 ar   
     5    5    2 ar   
     6    6    2 1    
     7   11    3 ar   
     8   25    3 1    
     9    5    4 1    
    10    7    6 2    
    11    8    6 1    
    12    9    6 2    
    13   36    8 1    
    14   11   10 ar   
    15   12   10 1    
    16   26   11 1    
    17   13   12 2    
    18   14   12 1    
    19   15   14 1    
    20   27   14 1    
    21   28   14 1    
    22   16   15 1    
    23   17   16 ar   
    24   22   16 ar   
    25   18   17 ar   
    26   19   18 1    
    27   20   18 ar   
    28   30   19 1    
    29   31   19 1    
    30   32   19 1    
    31   21   20 ar   
    32   29   20 1    
    33   22   21 ar   
    34   23   21 1    
    35   33   23 1    
    36   34   23 1    
    37   35   23 1    
@<TRIPOS>SUBSTRUCTURE
     1 E1E305      1 GROUP   
@<TRIPOS>SET

