#    Name: 3pmu_F7L_1_INTS_M
#    Modification time : Tue Mar 25 08:11:23 2014

@<TRIPOS>MOLECULE
3pmu_F7L_1_INTS_M
   37     0     6     0     0
SMALL
NO_CHARGES


@<TRIPOS>ATOM
      1 CA         -3.7940    6.2540    8.4255 C.3       2 GLC5        0.0000 
      2 CA         -1.9600    6.0520    7.3740 C.3       6 GLL5        0.0000 
      3 CA         -5.6280    6.4560    9.4770 C.3       4 GLP5        0.0000 
      4 CA         -1.1810    6.7255    4.9555 C.3       2 GLC5        0.0000 
      5 CA         -1.8000    8.2050    6.2750 C.3       6 GLL5        0.0000 
      6 CA         -0.5620    5.2460    3.6360 C.3       4 GLP5        0.0000 
      7 CA         -2.2490    7.8680    4.1330 C.3       2 GLC5        0.0000 
      8 CA         -2.6980    7.5310    1.9910 C.3       4 GLP5        0.0000 
      9 CA         -1.7210   11.7070    7.0560 C.3       2 GLC5        0.0000 
     10 CA         -2.6860   10.3280    7.8850 C.3       6 GLL5        0.0000 
     11 CA         -0.7560   13.0860    6.2270 C.3       4 GLP5        0.0000 
     12 CA         -3.9145    5.2075    9.0775 C.3       2 GLC5        0.0000 
     13 CA         -2.2010    3.9590    8.6780 C.3       6 GLL5        0.0000 
     14 O          -0.8890    2.2065    8.1860 O.2       1 ALC1        0.0000 
     15 O          -1.4310    2.9350    9.3540 O.2       5 ALL1        0.0000 
     16 O          -0.3470    1.4780    7.0180 O.2       3 ALP1        0.0000 
     17 CA         -0.6212    5.0598    6.2275 C.3       2 GLC5        0.0000 
     18 CA         -1.3870    5.2610    8.5320 C.3       6 GLL5        0.0000 
     19 CA          0.4310    4.4630    4.5020 C.3       4 GLP5        0.0000 
     20 CA         -0.8097    8.9160    5.6182 C.3       2 GLC5        0.0000 
     21 CA         -3.2350    8.5870    6.3760 C.3       6 GLL5        0.0000 
     22 CA          0.8980    9.4360    4.9110 C.3       4 GLP5        0.0000 
     23 CA         -5.1405    7.3461    7.6768 C.3       2 GLC5        0.0000 
     24 CA         -5.5165    8.7363    8.5612 C.3       2 GLC5        0.0000 
     25 CA         -5.9570    9.3080    6.5600 C.3       6 GLL5        0.0000 
     26 CA         -5.5670    7.8070   10.1970 C.3       4 GLP5        0.0000 
     27 CA         -2.7165    9.7125    9.3778 C.3       2 GLC5        0.0000 
     28 CA         -3.6160    9.6520    7.1900 C.3       6 GLL5        0.0000 
     29 CA         -2.2820    9.4350   11.2180 C.3       4 GLP5        0.0000 
     30 CA         -4.3590    8.8985    8.8673 C.3       2 GLC5        0.0000 
     31 CA         -2.7039   10.4775    5.3454 C.3       2 GLC5        0.0000 
     32 CA         -2.3410   11.9310    3.9330 C.3       4 GLP5        0.0000 
     33 CA         -0.2578    0.5475   12.2435 C.3       2 GLC5        0.0000 
     34 CA         -0.7660    2.0610   11.4260 C.3       6 GLL5        0.0000 
     35 CA          0.5940   -0.4290   13.4670 C.3       4 GLP5        0.0000 
     36 CA         -0.4073    3.4995   12.4853 C.3       2 GLC5        0.0000 
     37 CA          0.0800    4.2930   13.9290 C.3       4 GLP5        0.0000 
@<TRIPOS>BOND
@<TRIPOS>SUBSTRUCTURE
     1 ALC1       14 GROUP        1 X    ALC  0     ROOT ALC X 1
     2 GLC5        1 GROUP        1 X    GLC  0     **** GLC X 6
     3 ALP1       16 GROUP        1 Y    ALP  0     ROOT ALP Y 8
     4 GLP5        3 GROUP        1 Y    GLP  0     **** GLP Y 13
     5 ALL1       15 GROUP        1 Z    ALL  0     ROOT ALL Z 15
     6 GLL5        2 GROUP        1 Z    GLL  0     **** GLL Z 20
@<TRIPOS>SET

