#    Name: 3pmu_F7L_1_ligand
#    Modification time : Tue Mar 25 08:11:23 2014

@<TRIPOS>MOLECULE
3pmu_F7L_1_ligand
   39    40     1     0     0
SMALL
NO_CHARGES


@<TRIPOS>ATOM
      1 O1         -1.4570    6.0340    9.6610 O.3       1 F7L2001     0.0000 
      2 C2         -1.3870    5.2610    8.5320 C.3       1 F7L2001     0.0000 
      3 C3         -1.9600    6.0520    7.3740 C.3       1 F7L2001     0.0000 
      4 O4         -1.4330    7.3590    7.3490 O.3       1 F7L2001     0.0000 
      5 C5         -1.8000    8.2050    6.2750 C.3       1 F7L2001     0.0000 
      6 C6         -3.2350    8.5870    6.3760 C.ar      1 F7L2001     0.0000 
      7 C7         -4.2230    7.8740    5.6440 C.ar      1 F7L2001     0.0000 
      8 C8         -5.5770    8.2420    5.7430 C.ar      1 F7L2001     0.0000 
      9 C9         -5.9570    9.3080    6.5600 C.ar      1 F7L2001     0.0000 
     10 C10        -4.9750   10.0230    7.2910 C.ar      1 F7L2001     0.0000 
     11 C11        -3.6160    9.6520    7.1900 C.ar      1 F7L2001     0.0000 
     12 F12        -2.6860   10.3280    7.8850 F         1 F7L2001     0.0000 
     13 C13        -2.2010    3.9590    8.6780 C.3       1 F7L2001     0.0000 
     14 N14        -1.4310    2.9350    9.3540 N.4       1 F7L2001     0.0000 
     15 C15        -2.2190    1.7550    9.5650 C.3       1 F7L2001     0.0000 
     16 C16        -1.4530    0.9870   10.6140 C.3       1 F7L2001     0.0000 
     17 C17        -0.7660    2.0610   11.4260 C.3       1 F7L2001     0.0000 
     18 C18        -1.0230    3.3510   10.6570 C.3       1 F7L2001     0.0000 
     19 H          -0.3771    4.9839    8.2674 H         1 F7L2001     0.0000 
     20 H          -3.0593    6.0534    7.4810 H         1 F7L2001     0.0000 
     21 H          -1.7326    5.4987    6.4456 H         1 F7L2001     0.0000 
     22 H          -1.6383    7.7104    5.3000 H         1 F7L2001     0.0000 
     23 H          -1.1929    9.1284    6.2648 H         1 F7L2001     0.0000 
     24 H          -3.9427    7.0942    5.0470 H         1 F7L2001     0.0000 
     25 H          -6.2840    7.7222    5.2110 H         1 F7L2001     0.0000 
     26 H          -6.9392    9.5803    6.6377 H         1 F7L2001     0.0000 
     27 H          -5.2512   10.8019    7.8868 H         1 F7L2001     0.0000 
     28 H          -2.4964    3.6375    7.6707 H         1 F7L2001     0.0000 
     29 H          -3.1176    4.2009    9.2317 H         1 F7L2001     0.0000 
     30 H          -0.5555    2.6747    8.7675 H         1 F7L2001     0.0000 
     31 H          -2.2870    1.1547    8.6765 H         1 F7L2001     0.0000 
     32 H          -3.1946    1.9884    9.9497 H         1 F7L2001     0.0000 
     33 H          -0.7259    0.3618   10.1502 H         1 F7L2001     0.0000 
     34 H          -2.1275    0.4408   11.2315 H         1 F7L2001     0.0000 
     35 H           0.2825    1.8732   11.4695 H         1 F7L2001     0.0000 
     36 H          -1.2076    2.1274   12.3940 H         1 F7L2001     0.0000 
     37 H          -1.7959    3.9014   11.1696 H         1 F7L2001     0.0000 
     38 H          -0.1066    3.9192   10.6349 H         1 F7L2001     0.0000 
     39 H          -1.2121    6.9554    9.3593 H         1 F7L2001     0.0000 
@<TRIPOS>BOND
     1    2    1 1    
     2   39    1 1    
     3    3    2 1    
     4   13    2 1    
     5   19    2 1    
     6    4    3 1    
     7   20    3 1    
     8   21    3 1    
     9    5    4 1    
    10    6    5 1    
    11   22    5 1    
    12   23    5 1    
    13    7    6 ar   
    14   11    6 ar   
    15    8    7 ar   
    16   24    7 1    
    17    9    8 ar   
    18   25    8 1    
    19   10    9 ar   
    20   26    9 1    
    21   11   10 ar   
    22   27   10 1    
    23   12   11 1    
    24   14   13 1    
    25   28   13 1    
    26   29   13 1    
    27   15   14 1    
    28   18   14 1    
    29   30   14 1    
    30   16   15 1    
    31   31   15 1    
    32   32   15 1    
    33   17   16 1    
    34   33   16 1    
    35   34   16 1    
    36   18   17 1    
    37   35   17 1    
    38   36   17 1    
    39   37   18 1    
    40   38   18 1    
@<TRIPOS>SUBSTRUCTURE
     1 F7L2001     1 GROUP   
@<TRIPOS>SET

