#    Name: 6gsw_GPS_1_INTS_M
#    Modification time : Tue Mar 25 13:54:01 2014

@<TRIPOS>MOLECULE
6gsw_GPS_1_INTS_M
   88     0    15     0     0
SMALL
NO_CHARGES


@<TRIPOS>ATOM
      1 OD1        15.4280   13.5400   24.7120 O.co2     3 ASC3        0.0000 
      2 OD1        14.7360   14.6010   25.0850 O.co2    13 ASL3        0.0000 
      3 OD1        16.1200   12.4790   24.3390 O.co2     8 ASP3        0.0000 
      4 OD1        14.9085   13.2925   25.6175 O.co2     3 ASC3        0.0000 
      5 OD1        15.0810   11.9840   26.1500 O.co2     8 ASP3        0.0000 
      6 O          13.4130   14.1045   25.0005 O.2       1 ALC1        0.0000 
      7 O          14.7360   14.6010   25.0850 O.2      11 ALL1        0.0000 
      8 O          12.0900   13.6080   24.9160 O.2       6 ALP1        0.0000 
      9 O          15.4280   13.5400   24.7120 O.2       1 ALC1        0.0000 
     10 O          16.1200   12.4790   24.3390 O.2       6 ALP1        0.0000 
     11 O          14.9085   13.2925   25.6175 O.2       1 ALC1        0.0000 
     12 O          15.0810   11.9840   26.1500 O.2       6 ALP1        0.0000 
     13 O          15.0995   16.8040   30.7195 O.2       1 ALC1        0.0000 
     14 O          16.3770   16.2450   30.3790 O.2      11 ALL1        0.0000 
     15 O          13.8220   17.3630   31.0600 O.2       6 ALP1        0.0000 
     16 N          17.5275   18.2225   34.3650 N.am      2 SEC2        0.0000 
     17 N          17.4860   17.0610   33.6430 N.am     12 SEL2        0.0000 
     18 N          17.5690   19.3840   35.0870 N.am      7 SEP2        0.0000 
     19 O          15.4965   14.4530   32.1505 O.2       1 ALC1        0.0000 
     20 O          16.5060   15.1850   32.8730 O.2      11 ALL1        0.0000 
     21 O          14.4870   13.7210   31.4280 O.2       6 ALP1        0.0000 
     22 N          11.3050   17.0210   26.5605 N.am      2 SEC2        0.0000 
     23 N          12.5580   16.7170   27.1140 N.am     12 SEL2        0.0000 
     24 N          10.0520   17.3250   26.0070 N.am      7 SEP2        0.0000 
     25 N          11.6885   17.1705   25.5305 N.am      2 SEC2        0.0000 
     26 N          13.3250   17.0160   25.0540 N.am     12 SEL2        0.0000 
     27 N          12.6175   18.0685   24.8000 N.am      2 SEC2        0.0000 
     28 N          11.9100   19.1210   24.5460 N.am      7 SEP2        0.0000 
     29 N          12.3290   16.5935   24.0805 N.am      2 SEC2        0.0000 
     30 N          11.3330   16.1710   23.1070 N.am      7 SEP2        0.0000 
     31 NZ         16.8515   11.4630   34.9485 N.4       4 LYC4        0.0000 
     32 NZ         17.5220   12.7110   33.8430 N.4      14 LYL4        0.0000 
     33 NZ         16.1810   10.2150   36.0540 N.4       9 LYP4        0.0000 
     34 NZ         16.3765   11.5650   35.9160 N.4       4 LYC4        0.0000 
     35 NZ         16.5720   12.9150   35.7780 N.4      14 LYL4        0.0000 
     36 N          15.8830   13.7435   36.6385 N.am      2 SEC2        0.0000 
     37 N          16.5720   12.9150   35.7780 N.am     12 SEL2        0.0000 
     38 N          15.1940   14.5720   37.4990 N.am      7 SEP2        0.0000 
     39 N          16.3765   11.5650   35.9160 N.am      2 SEC2        0.0000 
     40 N          16.1810   10.2150   36.0540 N.am      7 SEP2        0.0000 
     41 CA         15.0190   14.6940   35.9690 C.3       5 GLC5        0.0000 
     42 CA         16.1800   14.7160   34.2470 C.3      15 GLL5        0.0000 
     43 CA         13.8580   14.6720   37.6910 C.3      10 GLP5        0.0000 
     44 CA         14.2320   14.0490   33.7030 C.3       5 GLC5        0.0000 
     45 CA         12.2840   13.3820   33.1590 C.3      10 GLP5        0.0000 
     46 CA         14.8505   16.2510   34.1365 C.3       5 GLC5        0.0000 
     47 CA         13.5210   17.7860   34.0260 C.3      10 GLP5        0.0000 
     48 CA         15.6040   17.8950   26.3660 C.3       5 GLC5        0.0000 
     49 CA         15.5590   15.9250   27.0430 C.3      15 GLL5        0.0000 
     50 CA         15.6490   19.8650   25.6890 C.3      10 GLP5        0.0000 
     51 CA         17.2430   19.5440   32.9880 C.3       5 GLC5        0.0000 
     52 CA         17.2770   18.4310   31.2900 C.3      15 GLL5        0.0000 
     53 CA         17.2090   20.6570   34.6860 C.3      10 GLP5        0.0000 
     54 CA         16.4575   20.0610   28.2000 C.3       5 GLC5        0.0000 
     55 CA         17.4290   19.0660   29.6860 C.3      15 GLL5        0.0000 
     56 CA         15.4860   21.0560   26.7140 C.3      10 GLP5        0.0000 
     57 CA         17.6240   21.1290   27.3070 C.3       5 GLC5        0.0000 
     58 CA         19.7620   21.2020   27.9000 C.3      15 GLL5        0.0000 
     59 CA         18.7405   23.7140   28.0730 C.3       5 GLC5        0.0000 
     60 CA         19.6800   22.3120   26.9990 C.3      15 GLL5        0.0000 
     61 CA         17.8010   25.1160   29.1470 C.3      10 GLP5        0.0000 
     62 CA         21.3920   21.8530   26.8500 C.3       5 GLC5        0.0000 
     63 CA         23.1040   21.3940   26.7010 C.3      10 GLP5        0.0000 
     64 CA         15.9805   20.0093   30.9720 C.3       5 GLC5        0.0000 
     65 CA         14.6080   21.2700   31.4560 C.3      10 GLP5        0.0000 
     66 CA         21.3813   20.5845   26.7293 C.3       5 GLC5        0.0000 
     67 CA         19.5490   19.6370   26.0820 C.3      15 GLL5        0.0000 
     68 CA         19.5303   23.9020   32.4472 C.3       5 GLC5        0.0000 
     69 CA         20.5130   22.7970   31.2690 C.3      15 GLL5        0.0000 
     70 CA         18.7280   25.4970   33.1700 C.3      10 GLP5        0.0000 
     71 CA         21.8208   22.5020   33.0667 C.3       5 GLC5        0.0000 
     72 CA         23.3090   22.6970   34.4090 C.3      10 GLP5        0.0000 
     73 CA         17.5866   20.0482   25.8319 C.3       5 GLC5        0.0000 
     74 CA         19.7680   19.9130   27.4330 C.3      15 GLL5        0.0000 
     75 CA         18.4940   21.9375   24.0895 C.3       5 GLC5        0.0000 
     76 CA         19.3900   20.6880   25.1920 C.3      15 GLL5        0.0000 
     77 CA         17.5470   22.5290   22.7570 C.3      10 GLP5        0.0000 
     78 CA         21.2140   21.4770   25.3065 C.3       5 GLC5        0.0000 
     79 CA         19.4920   22.0040   25.6520 C.3      15 GLL5        0.0000 
     80 CA         22.9870   21.6080   25.1910 C.3      10 GLP5        0.0000 
     81 CA         21.6807   24.3695   30.7185 C.3       5 GLC5        0.0000 
     82 CA         20.3580   22.7090   29.8870 C.3      15 GLL5        0.0000 
     83 CA         22.9260   25.9860   30.8590 C.3      10 GLP5        0.0000 
     84 CA         17.6100   22.2375   26.1242 C.3       5 GLC5        0.0000 
     85 CA         15.6340   22.3170   25.9230 C.3      10 GLP5        0.0000 
     86 CA         18.9934   23.6135   29.5595 C.3       5 GLC5        0.0000 
     87 CA         19.9360   21.4690   29.3660 C.3      15 GLL5        0.0000 
     88 CA         21.6038   21.7081   27.9805 C.3       5 GLC5        0.0000 
@<TRIPOS>BOND
@<TRIPOS>SUBSTRUCTURE
     1 ALC1        6 GROUP        1 X    ALC  0     ROOT ALC X 1
     2 SEC2       16 GROUP        1 X    SEC  0     **** SEC X 2
     3 ASC3        1 GROUP        1 X    ASC  0     **** ASC X 3
     4 LYC4       31 GROUP        1 X    LYC  0     **** LYC X 4
     5 GLC5       41 GROUP        1 X    GLC  0     **** GLC X 6
     6 ALP1        8 GROUP        1 Y    ALP  0     ROOT ALP Y 8
     7 SEP2       18 GROUP        1 Y    SEP  0     **** SEP Y 9
     8 ASP3        3 GROUP        1 Y    ASP  0     **** ASP Y 10
     9 LYP4       33 GROUP        1 Y    LYP  0     **** LYP Y 11
    10 GLP5       43 GROUP        1 Y    GLP  0     **** GLP Y 13
    11 ALL1        7 GROUP        1 Z    ALL  0     ROOT ALL Z 15
    12 SEL2       17 GROUP        1 Z    SEL  0     **** SEL Z 16
    13 ASL3        2 GROUP        1 Z    ASL  0     **** ASL Z 17
    14 LYL4       32 GROUP        1 Z    LYL  0     **** LYL Z 18
    15 GLL5       42 GROUP        1 Z    GLL  0     **** GLL Z 20
@<TRIPOS>SET

