#    Name: 6gsw_GPS_1_ligand
#    Modification time : Tue Mar 25 13:54:01 2014

@<TRIPOS>MOLECULE
6gsw_GPS_1_ligand
   61    63     1     0     0
SMALL
NO_CHARGES


@<TRIPOS>ATOM
      1 C1         13.3310   16.4150   26.2230 C.2       1 GPS221      0.0000 
      2 N1         14.7360   14.6010   25.0850 N.4       1 GPS221      0.0000 
      3 C2         17.0170   16.3630   32.7600 C.2       1 GPS221      0.0000 
      4 N2         16.3770   16.2450   30.3790 N.am      1 GPS221      0.0000 
      5 O2         17.4860   17.0610   33.6430 O.2       1 GPS221      0.0000 
      6 C3         16.7790   13.4010   34.5680 C.2       1 GPS221      0.0000 
      7 N3         16.5060   15.1850   32.8730 N.am      1 GPS221      0.0000 
      8 O5         21.1090   18.2810   28.4560 O.3       1 GPS221      0.0000 
      9 O11        12.5580   16.7170   27.1140 O.co2     1 GPS221      0.0000 
     10 O12        13.3250   17.0160   25.0540 O.co2     1 GPS221      0.0000 
     11 O31        17.5220   12.7110   33.8430 O.co2     1 GPS221      0.0000 
     12 O32        16.5720   12.9150   35.7780 O.co2     1 GPS221      0.0000 
     13 CA1        14.2810   15.2370   26.3750 C.3       1 GPS221      0.0000 
     14 CA2        17.2560   16.9010   31.3200 C.3       1 GPS221      0.0000 
     15 CA3        16.1800   14.7160   34.2470 C.3       1 GPS221      0.0000 
     16 CA4        19.1550   19.0430   29.7340 C.3       1 GPS221      0.0000 
     17 CA5        19.7230   18.6930   28.3470 C.3       1 GPS221      0.0000 
     18 CB1        15.5590   15.9250   27.0430 C.3       1 GPS221      0.0000 
     19 CB2        17.2770   18.4310   31.2900 C.3       1 GPS221      0.0000 
     20 CB4        19.6320   20.3830   30.2340 C.ar      1 GPS221      0.0000 
     21 CB5        19.7680   19.9130   27.4330 C.ar      1 GPS221      0.0000 
     22 CD1        16.8170   15.6700   29.2740 C.2       1 GPS221      0.0000 
     23 CD4        20.1520   21.8170   32.1800 C.ar      1 GPS221      0.0000 
     24 CD5        19.3900   20.6880   25.1920 C.ar      1 GPS221      0.0000 
     25 OE1        18.0280   15.4170   29.0100 O.2       1 GPS221      0.0000 
     26 CE4        20.5130   22.7970   31.2690 C.ar      1 GPS221      0.0000 
     27 CE5        19.4920   22.0040   25.6520 C.ar      1 GPS221      0.0000 
     28 CG1        15.7640   15.2290   28.3290 C.3       1 GPS221      0.0000 
     29 SG2        17.4290   19.0660   29.6860 S.3       1 GPS221      0.0000 
     30 CG4        19.7510   20.5870   31.6470 C.ar      1 GPS221      0.0000 
     31 CG5        19.5490   19.6370   26.0820 C.ar      1 GPS221      0.0000 
     32 CH4        19.9360   21.4690   29.3660 C.ar      1 GPS221      0.0000 
     33 CH5        19.7620   21.2020   27.9000 C.ar      1 GPS221      0.0000 
     34 CZ4        20.3580   22.7090   29.8870 C.ar      1 GPS221      0.0000 
     35 CZ5        19.6800   22.3120   26.9990 C.ar      1 GPS221      0.0000 
     36 H          15.3567   16.2538   30.6305 H         1 GPS221      0.0000 
     37 H          16.2997   14.5367   32.1224 H         1 GPS221      0.0000 
     38 H          13.9189   14.5487   27.0699 H         1 GPS221      0.0000 
     39 H          18.3237   16.5743   31.0872 H         1 GPS221      0.0000 
     40 H          16.5275   15.4697   34.9810 H         1 GPS221      0.0000 
     41 H          15.0794   14.6586   34.3605 H         1 GPS221      0.0000 
     42 H          19.3797   18.2692   30.4391 H         1 GPS221      0.0000 
     43 H          19.1367   17.9409   27.8893 H         1 GPS221      0.0000 
     44 H          15.3250   16.9574   27.1791 H         1 GPS221      0.0000 
     45 H          16.3786   15.7814   26.3747 H         1 GPS221      0.0000 
     46 H          18.1239   18.8374   31.8186 H         1 GPS221      0.0000 
     47 H          16.3592   18.8585   31.6598 H         1 GPS221      0.0000 
     48 H          20.1748   21.9747   33.1704 H         1 GPS221      0.0000 
     49 H          19.1986   20.5065   24.2015 H         1 GPS221      0.0000 
     50 H          20.9449   23.6927   31.6541 H         1 GPS221      0.0000 
     51 H          19.4249   22.7832   24.9614 H         1 GPS221      0.0000 
     52 H          15.9231   14.1161   28.1139 H         1 GPS221      0.0000 
     53 H          14.7670   15.2114   28.8909 H         1 GPS221      0.0000 
     54 H          19.5324   19.7985   32.2754 H         1 GPS221      0.0000 
     55 H          19.5070   18.6679   25.7567 H         1 GPS221      0.0000 
     56 H          20.5371   23.4903   29.2820 H         1 GPS221      0.0000 
     57 H          19.7553   23.2462   27.3340 H         1 GPS221      0.0000 
     58 H          13.9667   14.2432   24.5557 H         1 GPS221      0.0000 
     59 H          15.2170   15.2530   24.4989 H         1 GPS221      0.0000 
     60 H          15.3603   13.8370   25.2476 H         1 GPS221      0.0000 
     61 H          21.5026   18.8793   29.1539 H         1 GPS221      0.0000 
@<TRIPOS>BOND
     1    9    1 ar   
     2   10    1 ar   
     3   13    1 1    
     4   13    2 1    
     5   58    2 1    
     6   59    2 1    
     7   60    2 1    
     8    5    3 2    
     9    7    3 am   
    10   14    3 1    
    11   14    4 1    
    12   22    4 am   
    13   36    4 1    
    14   11    6 ar   
    15   12    6 ar   
    16   15    6 1    
    17   15    7 1    
    18   37    7 1    
    19   17    8 1    
    20   61    8 1    
    21   18   13 1    
    22   38   13 1    
    23   19   14 1    
    24   39   14 1    
    25   40   15 1    
    26   41   15 1    
    27   17   16 1    
    28   20   16 1    
    29   29   16 1    
    30   42   16 1    
    31   21   17 1    
    32   43   17 1    
    33   28   18 1    
    34   44   18 1    
    35   45   18 1    
    36   29   19 1    
    37   46   19 1    
    38   47   19 1    
    39   30   20 ar   
    40   32   20 ar   
    41   31   21 ar   
    42   33   21 ar   
    43   25   22 2    
    44   28   22 1    
    45   26   23 ar   
    46   30   23 ar   
    47   48   23 1    
    48   27   24 ar   
    49   31   24 ar   
    50   49   24 1    
    51   34   26 ar   
    52   50   26 1    
    53   35   27 ar   
    54   51   27 1    
    55   52   28 1    
    56   53   28 1    
    57   54   30 1    
    58   55   31 1    
    59   33   32 1    
    60   34   32 ar   
    61   35   33 ar   
    62   56   34 1    
    63   57   35 1    
@<TRIPOS>SUBSTRUCTURE
     1 GPS221      1 GROUP   
@<TRIPOS>SET

