#    Name: 3iw5_DF3_1_INTS_M
#    Modification time : Tue Mar 25 17:35:07 2014

@<TRIPOS>MOLECULE
3iw5_DF3_1_INTS_M
   94     0     6     0     0
SMALL
NO_CHARGES


@<TRIPOS>ATOM
      1 N          20.5355    1.1055  -27.4645 N.am      1 SEC2        0.0000 
      2 N          20.8150    1.4000  -26.2370 N.am      5 SEL2        0.0000 
      3 N          20.2560    0.8110  -28.6920 N.am      3 SEP2        0.0000 
      4 N          20.0525    2.3820  -27.1425 N.am      1 SEC2        0.0000 
      5 N          19.2900    3.3640  -28.0480 N.am      3 SEP2        0.0000 
      6 CA         24.1755   -7.1095  -20.4075 C.3       2 GLC5        0.0000 
      7 CA         23.4750   -5.4220  -19.2310 C.3       6 GLL5        0.0000 
      8 CA         24.8760   -8.7970  -21.5840 C.3       4 GLP5        0.0000 
      9 CA         24.5920   -6.0875  -18.2250 C.3       2 GLC5        0.0000 
     10 CA         25.7090   -6.7530  -17.2190 C.3       4 GLP5        0.0000 
     11 CA         23.7325   -7.2745  -21.3885 C.3       2 GLC5        0.0000 
     12 CA         22.5890   -5.7520  -21.1930 C.3       6 GLL5        0.0000 
     13 CA         22.7760   -5.2900  -22.9590 C.3       2 GLC5        0.0000 
     14 CA         22.9630   -4.8280  -24.7250 C.3       4 GLP5        0.0000 
     15 CA         26.6500   -1.6265  -22.3085 C.3       2 GLC5        0.0000 
     16 CA         24.8490   -2.2670  -21.7950 C.3       6 GLL5        0.0000 
     17 CA         28.4510   -0.9860  -22.8220 C.3       4 GLP5        0.0000 
     18 CA         16.8430    4.6000  -25.0975 C.3       2 GLC5        0.0000 
     19 CA         17.6210    3.6120  -23.5460 C.3       6 GLL5        0.0000 
     20 CA         16.0650    5.5880  -26.6490 C.3       4 GLP5        0.0000 
     21 CA         25.6190   -4.7930  -20.3445 C.3       2 GLC5        0.0000 
     22 CA         24.3720   -3.4870  -21.3180 C.3       6 GLL5        0.0000 
     23 CA         26.8660   -6.0990  -19.3710 C.3       4 GLP5        0.0000 
     24 CA         18.6670    3.6965  -19.6550 C.3       2 GLC5        0.0000 
     25 CA         17.9150    2.9920  -21.2390 C.3       6 GLL5        0.0000 
     26 CA         19.4190    4.4010  -18.0710 C.3       4 GLP5        0.0000 
     27 CA         23.6545   -2.0330  -18.5885 C.3       2 GLC5        0.0000 
     28 CA         22.4190   -2.4090  -20.4160 C.3       6 GLL5        0.0000 
     29 CA         24.8900   -1.6570  -16.7610 C.3       4 GLP5        0.0000 
     30 CA         20.3885    6.8725  -21.1730 C.3       2 GLC5        0.0000 
     31 CA         20.3210    7.3190  -23.0580 C.3       6 GLL5        0.0000 
     32 CA         20.4560    6.4260  -19.2880 C.3       4 GLP5        0.0000 
     33 CA         17.2240    0.0930  -20.1950 C.3       2 GLC5        0.0000 
     34 CA         18.9620    0.5460  -19.5180 C.3       6 GLL5        0.0000 
     35 CA         15.4860   -0.3600  -20.8720 C.3       4 GLP5        0.0000 
     36 CA         17.5315    1.0475  -18.0810 C.3       2 GLC5        0.0000 
     37 CA         16.1010    1.5490  -16.6440 C.3       4 GLP5        0.0000 
     38 CA         22.7655   -0.0340  -24.8015 C.3       2 GLC5        0.0000 
     39 CA         21.0290   -0.4230  -24.7800 C.3       6 GLL5        0.0000 
     40 CA         24.5020    0.3550  -24.8230 C.3       4 GLP5        0.0000 
     41 CA         19.3415   -2.5440  -23.3590 C.3       2 GLC5        0.0000 
     42 CA         19.3000   -0.8610  -24.4400 C.3       6 GLL5        0.0000 
     43 CA         19.3830   -4.2270  -22.2780 C.3       4 GLP5        0.0000 
     44 CA         17.6775   -1.7140  -23.1765 C.3       2 GLC5        0.0000 
     45 CA         16.0550   -2.5670  -21.9130 C.3       4 GLP5        0.0000 
     46 CA         22.8935    6.5245  -24.0130 C.3       2 GLC5        0.0000 
     47 CA         21.3170    5.8090  -24.8760 C.3       6 GLL5        0.0000 
     48 CA         24.4700    7.2400  -23.1500 C.3       4 GLP5        0.0000 
     49 CA         20.8105    5.8750  -21.4340 C.3       2 GLC5        0.0000 
     50 CA         21.1650    5.3240  -23.5800 C.3       6 GLL5        0.0000 
     51 CA         24.7795   -5.5170  -19.7600 C.3       2 GLC5        0.0000 
     52 CA         22.6930   -4.9350  -20.1490 C.3       6 GLL5        0.0000 
     53 CA         22.3375   -6.8014  -19.3987 C.3       2 GLC5        0.0000 
     54 CA         22.2220   -8.2070  -18.3850 C.3       4 GLP5        0.0000 
     55 CA         20.8691   -4.7810  -21.4026 C.3       2 GLC5        0.0000 
     56 CA         21.5500   -4.9010  -19.5740 C.3       6 GLL5        0.0000 
     57 CA         24.4940   -0.6643  -23.2540 C.3       2 GLC5        0.0000 
     58 CA         23.6585   -2.5168  -23.0230 C.3       2 GLC5        0.0000 
     59 CA         22.8310   -3.3500  -24.3610 C.3       4 GLP5        0.0000 
     60 CA         15.4640    4.1480  -22.8560 C.3       2 GLC5        0.0000 
     61 CA         13.3520    4.5210  -22.8390 C.3       4 GLP5        0.0000 
     62 CA         24.2888    0.6597  -21.3145 C.3       2 GLC5        0.0000 
     63 CA         22.9180   -1.1670  -20.8750 C.3       6 GLL5        0.0000 
     64 CA         25.0570    2.4530  -21.4040 C.3       4 GLP5        0.0000 
     65 CA         25.1270   -2.5503  -19.7945 C.3       2 GLC5        0.0000 
     66 CA         26.4880   -1.5760  -18.6140 C.3       4 GLP5        0.0000 
     67 CA         23.2985   -3.4372  -22.6680 C.3       2 GLC5        0.0000 
     68 CA         22.9997    1.8462  -24.8990 C.3       2 GLC5        0.0000 
     69 CA         21.4440    3.0980  -24.3310 C.3       6 GLL5        0.0000 
     70 CA         16.9075    0.6770  -24.3072 C.3       2 GLC5        0.0000 
     71 CA         18.0820    2.3610  -23.9220 C.3       6 GLL5        0.0000 
     72 CA         15.5400   -0.5400  -25.1670 C.3       4 GLP5        0.0000 
     73 CA         21.0862   -3.6063  -21.4010 C.3       2 GLC5        0.0000 
     74 CA         22.7497   -2.5690  -22.5033 C.3       2 GLC5        0.0000 
     75 CA         19.2207   -2.1568  -22.3438 C.3       2 GLC5        0.0000 
     76 CA         19.1620   -0.3030  -21.7960 C.3       6 GLL5        0.0000 
     77 CA         17.2722   -0.2233  -21.6407 C.3       2 GLC5        0.0000 
     78 CA         19.5403    2.6138  -18.7030 C.3       2 GLC5        0.0000 
     79 CA         22.6292    7.4373  -23.3552 C.3       2 GLC5        0.0000 
     80 CA         21.4977   -1.9960  -24.4855 C.3       2 GLC5        0.0000 
     81 CA         19.1083   -0.8880  -26.3280 C.3       2 GLC5        0.0000 
     82 CA         18.0520   -1.1340  -28.0460 C.3       4 GLP5        0.0000 
     83 CA         17.3338   -0.4527  -24.4492 C.3       2 GLC5        0.0000 
     84 CA         22.5666    3.3422  -26.5839 C.3       2 GLC5        0.0000 
     85 CA         23.6470    3.0080  -28.1220 C.3       4 GLP5        0.0000 
     86 CA         25.0950   -1.5006  -19.9470 C.3       2 GLC5        0.0000 
     87 CA         24.1230   -1.1000  -21.5750 C.3       6 GLL5        0.0000 
     88 CA         20.4139    4.9130  -26.7381 C.3       2 GLC5        0.0000 
     89 CA         21.5510    3.5770  -25.6190 C.3       6 GLL5        0.0000 
     90 CA         19.4050    4.7940  -28.1580 C.3       4 GLP5        0.0000 
     91 CA         22.9334    5.1235  -23.1904 C.3       2 GLC5        0.0000 
     92 CA         24.6200    5.8170  -22.6850 C.3       4 GLP5        0.0000 
     93 CA         16.8986    0.7683  -21.5382 C.3       2 GLC5        0.0000 
     94 CA         18.4680    1.4270  -22.9730 C.3       6 GLL5        0.0000 
@<TRIPOS>BOND
@<TRIPOS>SUBSTRUCTURE
     1 SEC2        1 GROUP        1 X    SEC  0     ROOT SEC X 2
     2 GLC5        6 GROUP        1 X    GLC  0     **** GLC X 6
     3 SEP2        3 GROUP        1 Y    SEP  0     ROOT SEP Y 9
     4 GLP5        8 GROUP        1 Y    GLP  0     **** GLP Y 13
     5 SEL2        2 GROUP        1 Z    SEL  0     ROOT SEL Z 16
     6 GLL5        7 GROUP        1 Z    GLL  0     **** GLL Z 20
@<TRIPOS>SET

