#    Name: 3iw5_DF3_1_ligand
#    Modification time : Tue Mar 25 17:35:07 2014

@<TRIPOS>MOLECULE
3iw5_DF3_1_ligand
   63    67     1     0     0
SMALL
NO_CHARGES


@<TRIPOS>ATOM
      1 OAA        20.8150    1.4000  -26.2370 O.2       1 DF3362      0.0000 
      2 OAB        22.1330    1.0210  -21.4740 O.2       1 DF3362      0.0000 
      3 FAC        23.4750   -5.4220  -19.2310 F         1 DF3362      0.0000 
      4 FAD        21.5500   -4.9010  -19.5740 F         1 DF3362      0.0000 
      5 FAE        22.5890   -5.7520  -21.1930 F         1 DF3362      0.0000 
      6 CAF        24.8490   -2.2670  -21.7950 C.ar      1 DF3362      0.0000 
      7 CAG        17.6210    3.6120  -23.5460 C.ar      1 DF3362      0.0000 
      8 CAH        17.5310    3.9380  -22.2000 C.ar      1 DF3362      0.0000 
      9 CAI        24.1230   -1.1000  -21.5750 C.ar      1 DF3362      0.0000 
     10 CAJ        24.3720   -3.4870  -21.3180 C.ar      1 DF3362      0.0000 
     11 CAK        21.5510    3.5770  -25.6190 C.ar      1 DF3362      0.0000 
     12 CAL        21.5060    4.9330  -25.9020 C.ar      1 DF3362      0.0000 
     13 CAM        18.0820    2.3610  -23.9220 C.ar      1 DF3362      0.0000 
     14 CAN        17.9150    2.9920  -21.2390 C.ar      1 DF3362      0.0000 
     15 CAO        21.2130    3.9740  -23.2920 C.ar      1 DF3362      0.0000 
     16 CAP        22.4190   -2.4090  -20.4160 C.ar      1 DF3362      0.0000 
     17 CAQ        19.1620   -0.3030  -21.7960 C.2       1 DF3362      0.0000 
     18 CAR        20.3610    1.1070  -19.1520 C.3       1 DF3362      0.0000 
     19 CAS        21.2560    7.9500  -24.0630 C.3       1 DF3362      0.0000 
     20 CAT        20.3210    7.3190  -23.0580 C.3       1 DF3362      0.0000 
     21 CAU        18.9620    0.5460  -19.5180 C.3       1 DF3362      0.0000 
     22 CAV        21.0290   -0.4230  -24.7800 C.3       1 DF3362      0.0000 
     23 NAW        21.2900    0.0500  -19.5530 N.am      1 DF3362      0.0000 
     24 NAX        21.4440    1.8210  -24.1220 N.am      1 DF3362      0.0000 
     25 OAY        21.2750    7.1180  -25.2140 O.3       1 DF3362      0.0000 
     26 OAZ        20.9860    6.1600  -22.5520 O.3       1 DF3362      0.0000 
     27 SBA        19.3000   -0.8610  -24.4400 S.3       1 DF3362      0.0000 
     28 CBB        21.0910    1.0320  -25.1120 C.2       1 DF3362      0.0000 
     29 CBC        22.0860    0.0990  -20.6560 C.2       1 DF3362      0.0000 
     30 CBD        21.4440    3.0980  -24.3310 C.ar      1 DF3362      0.0000 
     31 CBE        22.9180   -1.1670  -20.8750 C.ar      1 DF3362      0.0000 
     32 CBF        23.1600   -3.5620  -20.6320 C.ar      1 DF3362      0.0000 
     33 CBG        21.3170    5.8090  -24.8760 C.ar      1 DF3362      0.0000 
     34 CBH        21.1650    5.3240  -23.5800 C.ar      1 DF3362      0.0000 
     35 CBI        18.9550    0.1300  -23.0230 C.2       1 DF3362      0.0000 
     36 CBJ        18.4680    1.4270  -22.9730 C.ar      1 DF3362      0.0000 
     37 CBK        18.3940    1.7400  -21.6330 C.ar      1 DF3362      0.0000 
     38 NBL        18.8290    0.6700  -20.9730 N.pl3     1 DF3362      0.0000 
     39 CBM        22.6930   -4.9350  -20.1490 C.3       1 DF3362      0.0000 
     40 H          25.7381   -2.2303  -22.3097 H         1 DF3362      0.0000 
     41 H          17.3460    4.2978  -24.2611 H         1 DF3362      0.0000 
     42 H          17.1897    4.8549  -21.9062 H         1 DF3362      0.0000 
     43 H          24.4679   -0.2023  -21.9222 H         1 DF3362      0.0000 
     44 H          24.9230   -4.3466  -21.4745 H         1 DF3362      0.0000 
     45 H          21.6695    2.9014  -26.4065 H         1 DF3362      0.0000 
     46 H          21.6139    5.2592  -26.8674 H         1 DF3362      0.0000 
     47 H          18.1394    2.1189  -24.9287 H         1 DF3362      0.0000 
     48 H          17.8430    3.2228  -20.2402 H         1 DF3362      0.0000 
     49 H          21.0815    3.6372  -22.3402 H         1 DF3362      0.0000 
     50 H          21.5213   -2.4433  -19.9320 H         1 DF3362      0.0000 
     51 H          19.4986   -1.1795  -21.5445 H         1 DF3362      0.0000 
     52 H          20.3863    1.2779  -18.0986 H         1 DF3362      0.0000 
     53 H          20.5167    2.0038  -19.7098 H         1 DF3362      0.0000 
     54 H          22.2420    8.0349  -23.6057 H         1 DF3362      0.0000 
     55 H          20.8882    8.9508  -24.2901 H         1 DF3362      0.0000 
     56 H          19.3947    7.0644  -23.5627 H         1 DF3362      0.0000 
     57 H          20.1191    8.0424  -22.2747 H         1 DF3362      0.0000 
     58 H          18.2216    1.1326  -19.0024 H         1 DF3362      0.0000 
     59 H          18.9221   -0.4826  -19.2041 H         1 DF3362      0.0000 
     60 H          21.2641   -1.0706  -25.5852 H         1 DF3362      0.0000 
     61 H          21.5047   -0.6898  -23.8714 H         1 DF3362      0.0000 
     62 H          21.3147   -0.7912  -18.9170 H         1 DF3362      0.0000 
     63 H          21.7152    1.4193  -23.1966 H         1 DF3362      0.0000 
@<TRIPOS>BOND
     1   28    1 2    
     2   29    2 2    
     3   39    3 1    
     4   39    4 1    
     5   39    5 1    
     6    9    6 ar   
     7   10    6 ar   
     8   40    6 1    
     9    8    7 ar   
    10   13    7 ar   
    11   41    7 1    
    12   14    8 ar   
    13   42    8 1    
    14   31    9 ar   
    15   43    9 1    
    16   32   10 ar   
    17   44   10 1    
    18   12   11 ar   
    19   30   11 ar   
    20   45   11 1    
    21   33   12 ar   
    22   46   12 1    
    23   36   13 ar   
    24   47   13 1    
    25   37   14 ar   
    26   48   14 1    
    27   30   15 ar   
    28   34   15 ar   
    29   49   15 1    
    30   31   16 ar   
    31   32   16 ar   
    32   50   16 1    
    33   35   17 2    
    34   38   17 1    
    35   51   17 1    
    36   21   18 1    
    37   23   18 1    
    38   52   18 1    
    39   53   18 1    
    40   20   19 1    
    41   25   19 1    
    42   54   19 1    
    43   55   19 1    
    44   26   20 1    
    45   56   20 1    
    46   57   20 1    
    47   38   21 1    
    48   58   21 1    
    49   59   21 1    
    50   27   22 1    
    51   28   22 1    
    52   60   22 1    
    53   61   22 1    
    54   29   23 am   
    55   62   23 1    
    56   28   24 am   
    57   30   24 1    
    58   63   24 1    
    59   33   25 1    
    60   34   26 1    
    61   35   27 1    
    62   31   29 1    
    63   39   32 1    
    64   34   33 ar   
    65   36   35 1    
    66   37   36 ar   
    67   38   37 1    
@<TRIPOS>SUBSTRUCTURE
     1 DF3362      1 GROUP   
@<TRIPOS>SET

