#    Name: 2jt5_JT5_1_INTS_M
#    Modification time : Tue Mar 25 21:14:18 2014

@<TRIPOS>MOLECULE
2jt5_JT5_1_INTS_M
   54     0    12     0     0
SMALL
NO_CHARGES


@<TRIPOS>ATOM
      1 O           2.8160   -1.4670    7.7265 O.2       1 ALC1        0.0000 
      2 O           3.5400   -2.6610    7.1380 O.2       9 ALL1        0.0000 
      3 O           2.0920   -0.2730    8.3150 O.2       5 ALP1        0.0000 
      4 Zn          4.1850   -3.9505    5.9870 Zn        3 ZIC7        0.0000 
      5 Zn          3.1530   -3.6060    6.4240 Zn       11 ZIL7        0.0000 
      6 Zn          5.2170   -4.2950    5.5500 Zn        7 ZIP7        0.0000 
      7 Zn          5.5185   -3.4195    6.0105 Zn        3 ZIC7        0.0000 
      8 Zn          5.8200   -2.5440    6.4710 Zn       11 ZIL7        0.0000 
      9 Zn          5.8200   -2.5495    7.1200 Zn        3 ZIC7        0.0000 
     10 Zn          6.4230   -0.8040    8.6900 Zn       11 ZIL7        0.0000 
     11 CA          9.1710   -3.7775    7.3710 C.3       4 GLC5        0.0000 
     12 CA          7.7510   -2.9330    8.8600 C.3      12 GLL5        0.0000 
     13 CA         10.5910   -4.6220    5.8820 C.3       8 GLP5        0.0000 
     14 O           9.8530   -3.1575    8.6285 O.2       1 ALC1        0.0000 
     15 O           8.7340   -3.4200    9.7420 O.2       9 ALL1        0.0000 
     16 O          10.9720   -2.8950    7.5150 O.2       5 ALP1        0.0000 
     17 N           5.6390    2.6200    9.1185 N.am      2 SEC2        0.0000 
     18 N           6.6120    1.6870    8.5240 N.am     10 SEL2        0.0000 
     19 N           4.6660    3.5530    9.7130 N.am      6 SEP2        0.0000 
     20 CA          9.6500   -2.6750    5.3415 C.3       4 GLC5        0.0000 
     21 CA          8.7090   -0.7280    4.8010 C.3      12 GLL5        0.0000 
     22 CA          6.2575    2.8460    3.7980 C.3       4 GLC5        0.0000 
     23 CA          7.4810    1.3220    4.4470 C.3      12 GLL5        0.0000 
     24 CA          5.0340    4.3700    3.1490 C.3       8 GLP5        0.0000 
     25 CA          5.9890    1.9780    1.4115 C.3       4 GLC5        0.0000 
     26 CA          7.8200    0.9710    1.5820 C.3      12 GLL5        0.0000 
     27 CA          4.1580    2.9850    1.2410 C.3       8 GLP5        0.0000 
     28 CA         11.1165   -2.4885    1.1045 C.3       4 GLC5        0.0000 
     29 CA          9.8270   -0.7360    0.6680 C.3      12 GLL5        0.0000 
     30 CA         12.4060   -4.2410    1.5410 C.3       8 GLP5        0.0000 
     31 CA          9.2560    1.4878    5.6502 C.3       4 GLC5        0.0000 
     32 CA          8.4260   -0.6550    6.1610 C.3      12 GLL5        0.0000 
     33 CA         10.4640    3.1040    4.8790 C.3       8 GLP5        0.0000 
     34 CA         10.4907   -0.9708    5.6735 C.3       4 GLC5        0.0000 
     35 CA         12.4140   -1.2500    5.8660 C.3       8 GLP5        0.0000 
     36 CA          9.9428    0.9163    4.3107 C.3       4 GLC5        0.0000 
     37 CA         11.4110    2.0650    4.2570 C.3       8 GLP5        0.0000 
     38 CA          7.0785    3.1185    5.8500 C.3       4 GLC5        0.0000 
     39 CA          6.8140    4.8850    6.5720 C.3       8 GLP5        0.0000 
     40 CA          8.9035    2.2280    5.0035 C.3       4 GLC5        0.0000 
     41 CA          7.2050    1.3820    5.8090 C.3      12 GLL5        0.0000 
     42 CA         10.2257    0.9143    3.2612 C.3       4 GLC5        0.0000 
     43 CA          8.5380    0.1920    2.5010 C.3      12 GLL5        0.0000 
     44 CA          7.8878   -0.2978   -1.6455 C.3       4 GLC5        0.0000 
     45 CA          8.1070    0.8970    0.2210 C.3      12 GLL5        0.0000 
     46 CA          7.1670   -1.0660   -3.2820 C.3       8 GLP5        0.0000 
     47 CA          8.0409    2.2485   -0.5789 C.3       4 GLC5        0.0000 
     48 CA          9.1100    0.0440   -0.2390 C.3      12 GLL5        0.0000 
     49 CA          7.5450    4.0080   -1.4890 C.3       8 GLP5        0.0000 
     50 CA          6.8154   -0.3530    0.5931 C.3       4 GLC5        0.0000 
     51 CA          5.0940   -1.1950    0.8550 C.3       8 GLP5        0.0000 
     52 CA          7.2470   -1.1759    2.2756 C.3       4 GLC5        0.0000 
     53 CA          9.5430   -0.6650    2.0300 C.3      12 GLL5        0.0000 
     54 CA          5.5280   -2.1330    1.9290 C.3       8 GLP5        0.0000 
@<TRIPOS>BOND
@<TRIPOS>SUBSTRUCTURE
     1 ALC1        1 GROUP        1 X    ALC  0     ROOT ALC X 1
     2 SEC2       17 GROUP        1 X    SEC  0     **** SEC X 2
     3 ZIC7        4 GROUP        1 X    ZIC  0     **** ZIC X 5
     4 GLC5       11 GROUP        1 X    GLC  0     **** GLC X 6
     5 ALP1        3 GROUP        1 Y    ALP  0     ROOT ALP Y 8
     6 SEP2       19 GROUP        1 Y    SEP  0     **** SEP Y 9
     7 ZIP7        6 GROUP        1 Y    ZIP  0     **** ZIP Y 12
     8 GLP5       13 GROUP        1 Y    GLP  0     **** GLP Y 13
     9 ALL1        2 GROUP        1 Z    ALL  0     ROOT ALL Z 15
    10 SEL2       18 GROUP        1 Z    SEL  0     **** SEL Z 16
    11 ZIL7        5 GROUP        1 Z    ZIL  0     **** ZIL Z 19
    12 GLL5       12 GROUP        1 Z    GLL  0     **** GLL Z 20
@<TRIPOS>SET

