#    Name: 2jt5_JT5_1_ligand
#    Modification time : Tue Mar 25 21:14:18 2014

@<TRIPOS>MOLECULE
2jt5_JT5_1_ligand
   42    43     1     0     0
SMALL
NO_CHARGES


@<TRIPOS>ATOM
      1 C3          4.8520   -2.1340    7.1630 C.2       1 JT51        0.0000 
      2 C4          5.0980   -0.9580    8.1440 C.3       1 JT51        0.0000 
      3 C8          6.9120   -1.8460    9.5530 C.3       1 JT51        0.0000 
      4 N2          3.5400   -2.6610    7.1380 N.am      1 JT51        0.0000 
      5 O1          3.1530   -3.6060    6.4240 O.3       1 JT51        0.0000 
      6 O5          5.8200   -2.5440    6.4710 O.2       1 JT51        0.0000 
      7 N6          6.4230   -0.8040    8.6900 N.pl3     1 JT51        0.0000 
      8 S7          7.3380    0.4800    8.3570 S.o2      1 JT51        0.0000 
      9 C9          7.7510   -2.9330    8.8600 C.3       1 JT51        0.0000 
     10 O10         8.7340   -3.4200    9.7420 O.3       1 JT51        0.0000 
     11 O11         8.5590    0.4380    9.0860 O.2       1 JT51        0.0000 
     12 C12         7.6700    0.3980    6.6820 C.ar      1 JT51        0.0000 
     13 O13         6.6120    1.6870    8.5240 O.2       1 JT51        0.0000 
     14 C14         8.4260   -0.6550    6.1610 C.ar      1 JT51        0.0000 
     15 C15         8.7090   -0.7280    4.8010 C.ar      1 JT51        0.0000 
     16 C16         8.2400    0.2630    3.9280 C.ar      1 JT51        0.0000 
     17 C17         7.4810    1.3220    4.4470 C.ar      1 JT51        0.0000 
     18 C18         7.2050    1.3820    5.8090 C.ar      1 JT51        0.0000 
     19 C19         8.5380    0.1920    2.5010 C.ar      1 JT51        0.0000 
     20 C20         7.8200    0.9710    1.5820 C.ar      1 JT51        0.0000 
     21 C21         8.1070    0.8970    0.2210 C.ar      1 JT51        0.0000 
     22 C22         9.1100    0.0440   -0.2390 C.ar      1 JT51        0.0000 
     23 C23         9.8270   -0.7360    0.6680 C.ar      1 JT51        0.0000 
     24 C24         9.5430   -0.6650    2.0300 C.ar      1 JT51        0.0000 
     25 H           4.3367   -1.0650    8.9686 H         1 JT51        0.0000 
     26 H           4.7767   -0.0206    7.6063 H         1 JT51        0.0000 
     27 H           6.0687   -2.3640   10.0720 H         1 JT51        0.0000 
     28 H           7.5390   -1.4226   10.3755 H         1 JT51        0.0000 
     29 H           2.8620   -2.1543    7.8223 H         1 JT51        0.0000 
     30 H           8.1854   -2.4806    7.9573 H         1 JT51        0.0000 
     31 H           7.0559   -3.7190    8.5323 H         1 JT51        0.0000 
     32 H           8.7790   -1.3892    6.7975 H         1 JT51        0.0000 
     33 H           9.2640   -1.5101    4.4303 H         1 JT51        0.0000 
     34 H           7.1304    2.0526    3.8156 H         1 JT51        0.0000 
     35 H           6.6458    2.1686    6.1827 H         1 JT51        0.0000 
     36 H           7.0785    1.5989    1.9189 H         1 JT51        0.0000 
     37 H           7.5782    1.4728   -0.4474 H         1 JT51        0.0000 
     38 H           9.3197   -0.0095   -1.2415 H         1 JT51        0.0000 
     39 H          10.5670   -1.3649    0.3299 H         1 JT51        0.0000 
     40 H          10.0712   -1.2428    2.6971 H         1 JT51        0.0000 
     41 H           2.4374   -4.0571    6.9574 H         1 JT51        0.0000 
     42 H           9.5960   -3.3319    9.2428 H         1 JT51        0.0000 
@<TRIPOS>BOND
     1    2    1 1    
     2    4    1 am   
     3    6    1 2    
     4    7    2 1    
     5   25    2 1    
     6   26    2 1    
     7    7    3 1    
     8    9    3 1    
     9   27    3 1    
    10   28    3 1    
    11    5    4 1    
    12   29    4 1    
    13   41    5 1    
    14    8    7 1    
    15   11    8 2    
    16   12    8 1    
    17   13    8 2    
    18   10    9 1    
    19   30    9 1    
    20   31    9 1    
    21   42   10 1    
    22   14   12 ar   
    23   18   12 ar   
    24   15   14 ar   
    25   32   14 1    
    26   16   15 ar   
    27   33   15 1    
    28   17   16 ar   
    29   19   16 1    
    30   18   17 ar   
    31   34   17 1    
    32   35   18 1    
    33   20   19 ar   
    34   24   19 ar   
    35   21   20 ar   
    36   36   20 1    
    37   22   21 ar   
    38   37   21 1    
    39   23   22 ar   
    40   38   22 1    
    41   24   23 ar   
    42   39   23 1    
    43   40   24 1    
@<TRIPOS>SUBSTRUCTURE
     1 JT51        1 GROUP   
@<TRIPOS>SET

