#    Name: 3sfd_PCI_1_INTS_M
#    Modification time : Tue Mar 25 12:32:00 2014

@<TRIPOS>MOLECULE
3sfd_PCI_1_INTS_M
   43     0     6     0     0
SMALL
NO_CHARGES


@<TRIPOS>ATOM
      1 N          85.9460   68.8275   86.8280 N.am      1 SEC2        0.0000 
      2 N          84.7180   68.3010   86.0400 N.am      5 SEL2        0.0000 
      3 N          87.1740   69.3540   87.6160 N.am      3 SEP2        0.0000 
      4 CA         88.4120   67.6805   86.6245 C.3       2 GLC5        0.0000 
      5 CA         87.2470   66.6820   85.9760 C.3       6 GLL5        0.0000 
      6 CA         89.5770   68.6790   87.2730 C.3       4 GLP5        0.0000 
      7 CA         86.2895   63.8200   87.7030 C.3       2 GLC5        0.0000 
      8 CA         86.7130   63.5530   85.7810 C.3       6 GLL5        0.0000 
      9 CA         85.8660   64.0870   89.6250 C.3       4 GLP5        0.0000 
     10 CA         87.5460   62.5565   84.5405 C.3       2 GLC5        0.0000 
     11 CA         88.3790   61.5600   83.3000 C.3       4 GLP5        0.0000 
     12 CA         84.9745   64.1505   87.7015 C.3       2 GLC5        0.0000 
     13 CA         84.0830   64.2140   85.7780 C.3       6 GLL5        0.0000 
     14 CA         83.0925   61.9485   87.4595 C.3       2 GLC5        0.0000 
     15 CA         83.8380   62.4330   85.6740 C.3       6 GLL5        0.0000 
     16 CA         82.3470   61.4640   89.2450 C.3       4 GLP5        0.0000 
     17 CA         84.6340   60.8625   86.2580 C.3       2 GLC5        0.0000 
     18 CA         85.4300   59.2920   86.8420 C.3       4 GLP5        0.0000 
     19 CA         82.0820   61.9305   85.4170 C.3       2 GLC5        0.0000 
     20 CA         80.3260   61.4280   85.1600 C.3       4 GLP5        0.0000 
     21 CA         84.0440   62.3510   83.8320 C.3       2 GLC5        0.0000 
     22 CA         84.2500   62.2690   81.9900 C.3       4 GLP5        0.0000 
     23 CA         81.1690   64.0335   87.4700 C.3       2 GLC5        0.0000 
     24 CA         81.3570   64.4530   85.7470 C.3       6 GLL5        0.0000 
     25 CA         80.9810   63.6140   89.1930 C.3       4 GLP5        0.0000 
     26 CA         80.8415   62.9405   85.4535 C.3       2 GLC5        0.0000 
     27 CA         81.7585   64.0455   83.6905 C.3       2 GLC5        0.0000 
     28 CA         82.1600   63.6380   81.6340 C.3       4 GLP5        0.0000 
     29 CA         80.5395   68.2555   87.2260 C.3       2 GLC5        0.0000 
     30 CA         81.8390   67.5910   85.9510 C.3       6 GLL5        0.0000 
     31 CA         79.2400   68.9200   88.5010 C.3       4 GLP5        0.0000 
     32 CA         80.9925   67.7295   84.1545 C.3       2 GLC5        0.0000 
     33 CA         80.1460   67.8680   82.3580 C.3       4 GLP5        0.0000 
     34 CA         84.9112   65.1250   83.8533 C.3       2 GLC5        0.0000 
     35 CA         85.5740   66.0730   85.9120 C.3       6 GLL5        0.0000 
     36 CA         84.3570   64.8570   81.8360 C.3       4 GLP5        0.0000 
     37 CA         85.8819   65.5516   87.6827 C.3       2 GLC5        0.0000 
     38 CA         85.3570   64.7130   85.8290 C.3       6 GLL5        0.0000 
     39 CA         85.8800   65.5580   89.4790 C.3       4 GLP5        0.0000 
     40 CA         83.9545   64.7558   83.8160 C.3       2 GLC5        0.0000 
     41 CA         83.0210   65.0950   85.8140 C.3       6 GLL5        0.0000 
     42 CA         82.7637   65.0661   87.5958 C.3       2 GLC5        0.0000 
     43 CA         82.1360   64.5740   89.3430 C.3       4 GLP5        0.0000 
@<TRIPOS>BOND
@<TRIPOS>SUBSTRUCTURE
     1 SEC2        1 GROUP        1 X    SEC  0     ROOT SEC X 2
     2 GLC5        4 GROUP        1 X    GLC  0     **** GLC X 6
     3 SEP2        3 GROUP        1 Y    SEP  0     ROOT SEP Y 9
     4 GLP5        6 GROUP        1 Y    GLP  0     **** GLP Y 13
     5 SEL2        2 GROUP        1 Z    SEL  0     ROOT SEL Z 16
     6 GLL5        5 GROUP        1 Z    GLL  0     **** GLL Z 20
@<TRIPOS>SET

