#    Name: 3sfd_PCI_1_ligand
#    Modification time : Tue Mar 25 12:32:01 2014

@<TRIPOS>MOLECULE
3sfd_PCI_1_ligand
   12    12     1     0     0
SMALL
NO_CHARGES


@<TRIPOS>ATOM
      1 O1         84.7180   68.3010   86.0400 O.co2     1 PCI1        0.0000 
      2 C1         84.5140   66.9580   85.9510 C.ar      1 PCI1        0.0000 
      3 C2         85.5740   66.0730   85.9120 C.ar      1 PCI1        0.0000 
      4 CL1        87.2470   66.6820   85.9760 Cl        1 PCI1        0.0000 
      5 C3         85.3570   64.7130   85.8290 C.ar      1 PCI1        0.0000 
      6 CL2        86.7130   63.5530   85.7810 Cl        1 PCI1        0.0000 
      7 C4         84.0830   64.2140   85.7780 C.ar      1 PCI1        0.0000 
      8 CL3        83.8380   62.4330   85.6740 Cl        1 PCI1        0.0000 
      9 C5         83.0210   65.0950   85.8140 C.ar      1 PCI1        0.0000 
     10 CL4        81.3570   64.4530   85.7470 Cl        1 PCI1        0.0000 
     11 C6         83.2310   66.4620   85.9010 C.ar      1 PCI1        0.0000 
     12 CL5        81.8390   67.5910   85.9510 Cl        1 PCI1        0.0000 
@<TRIPOS>BOND
     1    2    1 ar   
     2    3    2 ar   
     3   11    2 ar   
     4    4    3 1    
     5    5    3 ar   
     6    6    5 1    
     7    7    5 ar   
     8    8    7 1    
     9    9    7 ar   
    10   10    9 1    
    11   11    9 ar   
    12   12   11 1    
@<TRIPOS>SUBSTRUCTURE
     1 PCI1        1 GROUP   
@<TRIPOS>SET

