#    Name: 4B1H_1_CAVITY_N1_6.mol2
#    Modification time : Tue Mar 11 18:40:44 2014

@<TRIPOS>MOLECULE
4B1H_1_CAVITY_N1_6.mol2
   68     0     6     0     0
SMALL
NO_CHARGES


@<TRIPOS>ATOM
      1 OG         31.1661   -0.2366    2.4546 O.2       1 SER1        0.0000 
      2 O          30.3362   -3.3669    3.3278 O.2       2 ALA2        0.0000 
      3 CA         31.5218    3.0124    4.1331 C.3       5 GLY6        0.0000 
      4 O          30.6665   -2.4652    6.8743 O.2       2 ALA2        0.0000 
      5 O          30.6792   -1.2915    5.9403 O.2       2 ALA2        0.0000 
      6 O          30.7046    1.0558    4.0722 O.2       2 ALA2        0.0000 
      7 O          29.8620   -3.2482    5.8795 O.2       2 ALA2        0.0000 
      8 O          29.8747   -2.0745    4.9454 O.2       2 ALA2        0.0000 
      9 O          29.8874   -0.9009    4.0114 O.2       2 ALA2        0.0000 
     10 OG         29.9001    0.2727    3.0774 O.2       1 SER1        0.0000 
     11 N          29.0703   -2.8576    3.9506 N.2       2 ALA2        0.0000 
     12 OG         29.0830   -1.6839    3.0166 O.2       1 SER1        0.0000 
     13 CA         32.6565    4.6972    8.6745 C.3       5 GLY6        0.0000 
     14 CA         31.8647    5.0878    6.7456 C.3       5 GLY6        0.0000 
     15 CA         31.0603    4.3048    5.7507 C.3       5 GLY6        0.0000 
     16 CA         31.0730    5.4784    4.8167 C.3       5 GLY6        0.0000 
     17 CA         30.2050   -1.1728    8.4920 C.3       5 GLY6        0.0000 
     18 CA         30.2177    0.0008    7.5579 C.3       5 GLY6        0.0000 
     19 O          29.4005   -1.9558    7.4971 O.2       2 ALA2        0.0000 
     20 O          29.4132   -0.7822    6.5631 O.2       2 ALA2        0.0000 
     21 CA         29.4259    0.3915    5.6291 C.3       5 GLY6        0.0000 
     22 O          28.5960   -2.7388    6.5023 O.2       2 ALA2        0.0000 
     23 CA         28.6087   -1.5652    5.5682 C.3       5 GLY6        0.0000 
     24 CA         28.6215   -0.3915    4.6342 C.3       5 GLY6        0.0000 
     25 OG         28.6342    0.7821    3.7002 O.2       1 SER1        0.0000 
     26 CA         27.8170   -1.1746    3.6394 C.3       5 GLY6        0.0000 
     27 CZ         30.5733    3.2499    9.2364 C.ar      4 PHE5        0.0000 
     28 CA         30.5861    4.4235    8.3024 C.3       5 GLY6        0.0000 
     29 CA         30.5988    5.5972    7.3684 C.3       5 GLY6        0.0000 
     30 CZ         29.7562    1.2932    9.1756 C.ar      4 PHE5        0.0000 
     31 CA         29.7689    2.4669    8.2416 C.3       5 GLY6        0.0000 
     32 CA         29.7816    3.6405    7.3075 C.3       5 GLY6        0.0000 
     33 CA         29.7943    4.8141    6.3735 C.3       5 GLY6        0.0000 
     34 CZ         28.9390   -0.6635    9.1148 C.ar      4 PHE5        0.0000 
     35 N          28.9517    0.5102    8.1807 N.2       2 ALA2        0.0000 
     36 CA         28.9644    1.6838    7.2467 C.3       5 GLY6        0.0000 
     37 CA         28.9771    2.8575    6.3127 C.3       5 GLY6        0.0000 
     38 CA         28.1345   -1.4465    8.1199 C.3       5 GLY6        0.0000 
     39 N          28.1472   -0.2728    7.1859 N.2       2 ALA2        0.0000 
     40 N          28.1600    0.9008    6.2519 N.2       2 ALA2        0.0000 
     41 CA         27.3555    0.1178    5.2570 C.3       5 GLY6        0.0000 
     42 O          30.1118    4.5422   10.8541 O.2       2 ALA2        0.0000 
     43 O          30.1246    5.7159    9.9201 O.2       2 ALA2        0.0000 
     44 DU         30.1373    6.8895    8.9860 H         6 CUB7        0.0000 
     45 CZ         29.3074    3.7592    9.8592 C.ar      4 PHE5        0.0000 
     46 DU         29.3201    4.9329    8.9252 H         6 CUB7        0.0000 
     47 NZ         29.3328    6.1065    7.9912 N.2       3 LYS4        0.0000 
     48 NZ         29.3455    7.2802    7.0572 N.2       3 LYS4        0.0000 
     49 CZ         28.4902    1.8026    9.7984 C.ar      4 PHE5        0.0000 
     50 CZ         28.5029    2.9762    8.8644 C.ar      4 PHE5        0.0000 
     51 NZ         28.5156    4.1499    7.9303 N.2       3 LYS4        0.0000 
     52 NZ         28.5283    5.3235    6.9963 N.2       3 LYS4        0.0000 
     53 N          27.6857    1.0196    8.8035 N.2       2 ALA2        0.0000 
     54 CA         27.7112    3.3668    6.9355 C.3       5 GLY6        0.0000 
     55 O          29.6630    7.0083   11.5377 O.2       2 ALA2        0.0000 
     56 O          28.8586    6.2252   10.5428 O.2       2 ALA2        0.0000 
     57 O          28.8713    7.3989    9.6088 O.2       2 ALA2        0.0000 
     58 O          28.8840    8.5725    8.6748 O.2       2 ALA2        0.0000 
     59 O          28.0414    4.2686   10.4820 O.2       2 ALA2        0.0000 
     60 O          28.0541    5.4422    9.5480 O.2       2 ALA2        0.0000 
     61 NZ         28.0668    6.6159    8.6140 N.2       3 LYS4        0.0000 
     62 O          27.2369    3.4856    9.4872 O.2       2 ALA2        0.0000 
     63 NZ         27.2497    4.6592    8.5531 N.2       3 LYS4        0.0000 
     64 N          26.4325    2.7026    8.4923 N.2       2 ALA2        0.0000 
     65 O          28.3971    7.5176   12.1605 O.2       2 ALA2        0.0000 
     66 O          28.4225    9.8649   10.2925 O.2       2 ALA2        0.0000 
     67 O          27.5926    6.7346   11.1656 O.2       2 ALA2        0.0000 
     68 CA         27.6053    7.9082   10.2316 C.3       5 GLY6        0.0000 
@<TRIPOS>BOND
@<TRIPOS>SUBSTRUCTURE
     1 SER1        1 GROUP   
     2 ALA2        2 GROUP   
     3 LYS4       47 GROUP   
     4 PHE5       27 GROUP   
     5 GLY6        3 GROUP   
     6 CUB7       44 GROUP   
@<TRIPOS>SET

