#    Name: 4b1h_AR6_1_INTS_M
#    Modification time : Tue Mar 25 06:34:12 2014

@<TRIPOS>MOLECULE
4b1h_AR6_1_INTS_M
   87     0     9     0     0
SMALL
NO_CHARGES


@<TRIPOS>ATOM
      1 N          21.7560   -5.1975   -1.5895 N.am      2 SEC2        0.0000 
      2 N          23.2960   -4.5470   -1.2150 N.am      8 SEL2        0.0000 
      3 N          20.2160   -5.8480   -1.9640 N.am      5 SEP2        0.0000 
      4 CA         22.5360   -5.9745    0.0790 C.3       3 GLC5        0.0000 
      5 CA         24.1450   -5.4820   -0.7790 C.3       9 GLL5        0.0000 
      6 CA         20.9270   -6.4670    0.9370 C.3       6 GLP5        0.0000 
      7 CA         23.7220   -7.4435   -1.3735 C.3       3 GLC5        0.0000 
      8 CA         23.2990   -9.4050   -1.9680 C.3       6 GLP5        0.0000 
      9 CA         26.8580   -5.0940   -1.7165 C.3       3 GLC5        0.0000 
     10 CA         25.7630   -4.0320   -0.3380 C.3       9 GLL5        0.0000 
     11 CA         27.9530   -6.1560   -3.0950 C.3       6 GLP5        0.0000 
     12 CA         22.3765   -3.7960   -2.8695 C.3       3 GLC5        0.0000 
     13 CA         23.6940   -3.2490   -1.2380 C.3       9 GLL5        0.0000 
     14 CA         21.0590   -4.3430   -4.5010 C.3       6 GLP5        0.0000 
     15 O          21.3635   -2.2290   -1.7970 O.2       1 ALC1        0.0000 
     16 O          22.8420   -2.3240   -1.6900 O.2       7 ALL1        0.0000 
     17 O          19.8850   -2.1340   -1.9040 O.2       4 ALP1        0.0000 
     18 CA         26.8000   -4.4415    2.1440 C.3       3 GLC5        0.0000 
     19 CA         28.1510   -4.2660    0.4640 C.3       9 GLL5        0.0000 
     20 CA         25.4490   -4.6170    3.8240 C.3       6 GLP5        0.0000 
     21 CA         27.9135   -4.4870   -1.4930 C.3       3 GLC5        0.0000 
     22 CA         27.6760   -4.7080   -3.4500 C.3       6 GLP5        0.0000 
     23 N          27.0830    1.3270    3.1460 N.am      2 SEC2        0.0000 
     24 N          27.9390    0.5920    3.9890 N.am      8 SEL2        0.0000 
     25 N          26.2270    2.0620    2.3030 N.am      5 SEP2        0.0000 
     26 N          28.8375   -3.4850    8.0950 N.am      2 SEC2        0.0000 
     27 N          28.5990   -2.0490    8.1650 N.am      8 SEL2        0.0000 
     28 N          29.0760   -4.9210    8.0250 N.am      5 SEP2        0.0000 
     29 CA         28.3305    3.7900    5.5570 C.3       3 GLC5        0.0000 
     30 CA         27.8160    3.8460    7.2630 C.3       9 GLL5        0.0000 
     31 CA         28.8450    3.7340    3.8510 C.3       6 GLP5        0.0000 
     32 O          27.2365    5.4480    6.0410 O.2       1 ALC1        0.0000 
     33 O          28.2220    5.1910    7.3140 O.2       7 ALL1        0.0000 
     34 O          26.2510    5.7050    4.7680 O.2       4 ALP1        0.0000 
     35 O          27.4850    6.1440    6.8570 O.2       1 ALC1        0.0000 
     36 O          26.7480    7.0970    6.4000 O.2       4 ALP1        0.0000 
     37 CA         29.1055   -3.7720   -1.7560 C.3       3 GLC5        0.0000 
     38 CA         29.5080   -3.7730   -0.0680 C.3       9 GLL5        0.0000 
     39 CA         28.7030   -3.7710   -3.4440 C.3       6 GLP5        0.0000 
     40 N          30.2965   -6.3850   -0.0220 N.am      2 SEC2        0.0000 
     41 N          30.3490   -4.9020   -0.3170 N.am      8 SEL2        0.0000 
     42 N          30.2440   -7.8680    0.2730 N.am      5 SEP2        0.0000 
     43 N          31.6440   -0.0185    4.8840 N.am      2 SEC2        0.0000 
     44 N          30.3280   -0.0930    4.2700 N.am      8 SEL2        0.0000 
     45 N          32.9600    0.0560    5.4980 N.am      5 SEP2        0.0000 
     46 N          31.8065   -2.5925    6.0410 N.am      2 SEC2        0.0000 
     47 N          30.8050   -1.9320    6.8830 N.am      8 SEL2        0.0000 
     48 N          32.8080   -3.2530    5.1990 N.am      5 SEP2        0.0000 
     49 N          32.0720   -1.1995    7.5060 N.am      2 SEC2        0.0000 
     50 N          33.3390   -0.4670    8.1290 N.am      5 SEP2        0.0000 
     51 CA         25.1765    3.2775    7.4735 C.3       3 GLC5        0.0000 
     52 CA         26.9490    3.4550    8.4470 C.3       9 GLL5        0.0000 
     53 CA         23.4040    3.1000    6.5000 C.3       6 GLP5        0.0000 
     54 O          24.8925    4.2175    9.1435 O.2       1 ALC1        0.0000 
     55 O          26.1530    4.4930    8.9500 O.2       7 ALL1        0.0000 
     56 O          23.6320    3.9420    9.3370 O.2       4 ALP1        0.0000 
     57 CA         29.4050   -0.9440    0.2995 C.3       3 GLC5        0.0000 
     58 CA         29.9930   -2.9300    1.1130 C.3       9 GLL5        0.0000 
     59 CA         28.8170    1.0420   -0.5140 C.3       6 GLP5        0.0000 
     60 CA         29.0865    2.4595   10.8085 C.3       3 GLC5        0.0000 
     61 CA         27.9930    3.1190    9.4960 C.3       9 GLL5        0.0000 
     62 CA         30.1800    1.8000   12.1210 C.3       6 GLP5        0.0000 
     63 N          28.5700    4.6415   11.4810 N.am      2 SEC2        0.0000 
     64 N          28.6380    4.2570   10.0510 N.am      8 SEL2        0.0000 
     65 N          28.5020    5.0260   12.9110 N.am      5 SEP2        0.0000 
     66 CA         27.4530   -4.1665    3.0665 C.3       3 GLC5        0.0000 
     67 CA         29.4570   -3.7160    2.3090 C.3       9 GLL5        0.0000 
     68 CA         29.5205   -5.5595    2.4400 C.3       3 GLC5        0.0000 
     69 CA         29.5840   -7.4030    2.5710 C.3       6 GLP5        0.0000 
     70 CA         30.1390    2.2090   10.0115 C.3       3 GLC5        0.0000 
     71 CA         28.9850    2.3320    8.6420 C.3       9 GLL5        0.0000 
     72 CA         31.2930    2.0860   11.3810 C.3       6 GLP5        0.0000 
     73 CA         27.5090   -3.2490    4.1340 C.3       3 GLC5        0.0000 
     74 CA         29.3710   -2.9810    3.6380 C.3       9 GLL5        0.0000 
     75 CA         25.6470   -3.5170    4.6300 C.3       6 GLP5        0.0000 
     76 CA         31.3030   -2.5415    4.0085 C.3       3 GLC5        0.0000 
     77 CA         33.2350   -2.1020    4.3790 C.3       6 GLP5        0.0000 
     78 CA         29.5345    0.1510   10.0325 C.3       3 GLC5        0.0000 
     79 CA         28.6460    0.8530    8.4970 C.3       9 GLL5        0.0000 
     80 CA         30.4230   -0.5510   11.5680 C.3       6 GLP5        0.0000 
     81 CA         24.2984   -2.2616    0.7176 C.3       3 GLC5        0.0000 
     82 CA         24.0590   -1.1510    2.3340 C.3       6 GLP5        0.0000 
     83 CA         29.2067   -5.7112    1.3845 C.3       3 GLC5        0.0000 
     84 CA         26.8295    3.9100   10.6467 C.3       3 GLC5        0.0000 
     85 CA         26.1880    4.5330   12.3220 C.3       6 GLP5        0.0000 
     86 CA         30.5242    1.8848    7.5182 C.3       3 GLC5        0.0000 
     87 CA         32.2330    2.1770    6.4670 C.3       6 GLP5        0.0000 
@<TRIPOS>BOND
@<TRIPOS>SUBSTRUCTURE
     1 ALC1       15 GROUP        1 X    ALC  0     ROOT ALC X 1
     2 SEC2        1 GROUP        1 X    SEC  0     **** SEC X 2
     3 GLC5        4 GROUP        1 X    GLC  0     **** GLC X 6
     4 ALP1       17 GROUP        1 Y    ALP  0     ROOT ALP Y 8
     5 SEP2        3 GROUP        1 Y    SEP  0     **** SEP Y 9
     6 GLP5        6 GROUP        1 Y    GLP  0     **** GLP Y 13
     7 ALL1       16 GROUP        1 Z    ALL  0     ROOT ALL Z 15
     8 SEL2        2 GROUP        1 Z    SEL  0     **** SEL Z 16
     9 GLL5        5 GROUP        1 Z    GLL  0     **** GLL Z 20
@<TRIPOS>SET

