#    Name: 4b1h_AR6_1_ligand
#    Modification time : Tue Mar 25 06:34:12 2014

@<TRIPOS>MOLECULE
4b1h_AR6_1_ligand
   57    60     1     0     0
SMALL
NO_CHARGES


@<TRIPOS>ATOM
      1 N1         23.2960   -4.5470   -1.2150 N.ar      1 AR61966     0.0000 
      2 C2         24.1450   -5.4820   -0.7790 C.ar      1 AR61966     0.0000 
      3 N3         25.3940   -5.3240   -0.3190 N.ar      1 AR61966     0.0000 
      4 C4         25.7630   -4.0320   -0.3380 C.ar      1 AR61966     0.0000 
      5 C5         25.0000   -2.9590   -0.7810 C.ar      1 AR61966     0.0000 
      6 C6         23.6940   -3.2490   -1.2380 C.ar      1 AR61966     0.0000 
      7 N6         22.8420   -2.3240   -1.6900 N.pl3     1 AR61966     0.0000 
      8 N7         25.7050   -1.7630   -0.6560 N.2       1 AR61966     0.0000 
      9 C8         26.8760   -2.1490   -0.2090 C.2       1 AR61966     0.0000 
     10 N9         26.9940   -3.5170   -0.0390 N.pl3     1 AR61966     0.0000 
     11 PA         28.8700   -0.4960    4.3870 P.3       1 AR61966     0.0000 
     12 PB         29.5010   -1.2880    7.2000 P.3       1 AR61966     0.0000 
     13 C1'        28.1510   -4.2660    0.4640 C.3       1 AR61966     0.0000 
     14 O1A        27.9390    0.5920    3.9890 O.co2     1 AR61966     0.0000 
     15 O1B        28.5990   -2.0490    8.1650 O.co2     1 AR61966     0.0000 
     16 C1D        27.8160    3.8460    7.2630 C.3       1 AR61966     0.0000 
     17 O1D        28.2220    5.1910    7.3140 O.3       1 AR61966     0.0000 
     18 C2'        29.5080   -3.7730   -0.0680 C.3       1 AR61966     0.0000 
     19 O2'        30.3490   -4.9020   -0.3170 O.3       1 AR61966     0.0000 
     20 O2A        30.3280   -0.0930    4.2700 O.co2     1 AR61966     0.0000 
     21 O2B        30.8050   -1.9320    6.8830 O.co2     1 AR61966     0.0000 
     22 C2D        26.9490    3.4550    8.4470 C.3       1 AR61966     0.0000 
     23 O2D        26.1530    4.4930    8.9500 O.3       1 AR61966     0.0000 
     24 C3'        29.9930   -2.9300    1.1130 C.3       1 AR61966     0.0000 
     25 O3'        31.4040   -2.8250    1.1800 O.3       1 AR61966     0.0000 
     26 O3A        28.5960   -1.0060    5.8740 O.3       1 AR61966     0.0000 
     27 C3D        27.9930    3.1190    9.4960 C.3       1 AR61966     0.0000 
     28 O3D        28.6380    4.2570   10.0510 O.3       1 AR61966     0.0000 
     29 C4'        29.4570   -3.7160    2.3090 C.3       1 AR61966     0.0000 
     30 O4'        28.1650   -4.1650    1.8730 O.3       1 AR61966     0.0000 
     31 C4D        28.9850    2.3320    8.6420 C.3       1 AR61966     0.0000 
     32 O4D        28.9510    2.9760    7.3450 O.3       1 AR61966     0.0000 
     33 C5'        29.3710   -2.9810    3.6380 C.3       1 AR61966     0.0000 
     34 O5'        28.5770   -1.7800    3.4960 O.3       1 AR61966     0.0000 
     35 C5D        28.6460    0.8530    8.4970 C.3       1 AR61966     0.0000 
     36 O5D        29.7370    0.1500    7.8200 O.3       1 AR61966     0.0000 
     37 H          23.7706   -6.5201   -0.7997 H         1 AR61966     0.0000 
     38 H          21.8709   -2.5088   -1.5386 H         1 AR61966     0.0000 
     39 H          23.2519   -1.5301   -2.1391 H         1 AR61966     0.0000 
     40 H          27.6425   -1.5358    0.0022 H         1 AR61966     0.0000 
     41 H          28.0552   -5.3175    0.1762 H         1 AR61966     0.0000 
     42 H          27.2548    3.6179    6.3685 H         1 AR61966     0.0000 
     43 H          29.3317   -3.1541   -0.8859 H         1 AR61966     0.0000 
     44 H          26.4323    2.5639    8.2172 H         1 AR61966     0.0000 
     45 H          29.4816   -1.9998    1.0869 H         1 AR61966     0.0000 
     46 H          27.5752    2.4527   10.1930 H         1 AR61966     0.0000 
     47 H          30.1032   -4.5972    2.4267 H         1 AR61966     0.0000 
     48 H          29.9636    2.4409    9.0741 H         1 AR61966     0.0000 
     49 H          30.3908   -2.7450    3.9649 H         1 AR61966     0.0000 
     50 H          28.9312   -3.6612    4.3771 H         1 AR61966     0.0000 
     51 H          27.7159    0.7664    7.9283 H         1 AR61966     0.0000 
     52 H          28.4766    0.4385    9.4947 H         1 AR61966     0.0000 
     53 H          27.4907    5.6994    6.8594 H         1 AR61966     0.0000 
     54 H          30.3100   -5.0404   -1.3066 H         1 AR61966     0.0000 
     55 H          25.2437    4.0917    9.0600 H         1 AR61966     0.0000 
     56 H          31.7466   -3.6141    0.6700 H         1 AR61966     0.0000 
     57 H          28.7052    4.9099    9.2965 H         1 AR61966     0.0000 
@<TRIPOS>BOND
     1    2    1 ar   
     2    6    1 ar   
     3    3    2 ar   
     4   37    2 1    
     5    4    3 ar   
     6    5    4 ar   
     7   10    4 1    
     8    6    5 ar   
     9    8    5 1    
    10    7    6 1    
    11   38    7 1    
    12   39    7 1    
    13    9    8 2    
    14   10    9 1    
    15   40    9 1    
    16   13   10 1    
    17   14   11 ar   
    18   20   11 ar   
    19   26   11 1    
    20   34   11 1    
    21   15   12 ar   
    22   21   12 ar   
    23   26   12 1    
    24   36   12 1    
    25   18   13 1    
    26   30   13 1    
    27   41   13 1    
    28   17   16 1    
    29   22   16 1    
    30   32   16 1    
    31   42   16 1    
    32   53   17 1    
    33   19   18 1    
    34   24   18 1    
    35   43   18 1    
    36   54   19 1    
    37   23   22 1    
    38   27   22 1    
    39   44   22 1    
    40   55   23 1    
    41   25   24 1    
    42   29   24 1    
    43   45   24 1    
    44   56   25 1    
    45   28   27 1    
    46   31   27 1    
    47   46   27 1    
    48   57   28 1    
    49   30   29 1    
    50   33   29 1    
    51   47   29 1    
    52   32   31 1    
    53   35   31 1    
    54   48   31 1    
    55   34   33 1    
    56   49   33 1    
    57   50   33 1    
    58   36   35 1    
    59   51   35 1    
    60   52   35 1    
@<TRIPOS>SUBSTRUCTURE
     1 AR61966     1 GROUP   
@<TRIPOS>SET

