#    Name: 3occ_DIH_1_INTS_M
#    Modification time : Tue Mar 25 03:37:16 2014

@<TRIPOS>MOLECULE
3occ_DIH_1_INTS_M
   48     0     9     0     0
SMALL
NO_CHARGES


@<TRIPOS>ATOM
      1 N          22.3485    7.7705   28.4315 N.am      2 SEC2        0.0000 
      2 N          22.1520    8.0910   29.6870 N.am      8 SEL2        0.0000 
      3 N          22.5450    7.4500   27.1760 N.am      5 SEP2        0.0000 
      4 CA         24.2300    7.6355   30.3015 C.3       3 GLC5        0.0000 
      5 CA         23.0820    9.1050   30.1290 C.3       9 GLL5        0.0000 
      6 CA         25.3780    6.1660   30.4740 C.3       6 GLP5        0.0000 
      7 CA         24.9855    9.5870   30.7465 C.3       3 GLC5        0.0000 
      8 CA         26.8890   10.0690   31.3640 C.3       6 GLP5        0.0000 
      9 CA         22.5435    8.6210   28.1235 C.3       3 GLC5        0.0000 
     10 CA         22.0050    8.1370   26.1180 C.3       6 GLP5        0.0000 
     11 CA         24.6740    9.2875   28.7915 C.3       3 GLC5        0.0000 
     12 CA         26.2660    9.4700   27.4540 C.3       6 GLP5        0.0000 
     13 CA         23.1775   12.3210   29.5690 C.3       3 GLC5        0.0000 
     14 CA         23.3150   11.3100   31.2560 C.3       9 GLL5        0.0000 
     15 CA         23.0400   13.3320   27.8820 C.3       6 GLP5        0.0000 
     16 CA         25.1020   10.6895   31.3100 C.3       3 GLC5        0.0000 
     17 O          23.6090   13.4425   31.8430 O.2       1 ALC1        0.0000 
     18 O          22.7870   12.6550   31.2970 O.2       7 ALL1        0.0000 
     19 O          24.4310   14.2300   32.3890 O.2       4 ALP1        0.0000 
     20 CA         24.2740   10.4225   34.7295 C.3       3 GLC5        0.0000 
     21 CA         23.5660   10.8450   32.6860 C.3       9 GLL5        0.0000 
     22 CA         24.9820   10.0000   36.7730 C.3       6 GLP5        0.0000 
     23 CA         25.3715   10.6745   32.8915 C.3       3 GLC5        0.0000 
     24 CA         27.1770   10.5040   33.0970 C.3       6 GLP5        0.0000 
     25 CA         19.9390    9.4285   34.5270 C.3       3 GLC5        0.0000 
     26 CA         22.0560    9.6420   34.2580 C.3       9 GLL5        0.0000 
     27 CA         17.8220    9.2150   34.7960 C.3       6 GLP5        0.0000 
     28 CA         22.9515   10.2955   35.7415 C.3       3 GLC5        0.0000 
     29 CA         23.8470   10.9490   37.2250 C.3       6 GLP5        0.0000 
     30 CA         19.6005    8.1815   34.4455 C.3       3 GLC5        0.0000 
     31 CA         21.3790    7.1480   34.0950 C.3       9 GLL5        0.0000 
     32 O          20.9035    4.9400   33.6835 O.2       1 ALC1        0.0000 
     33 O          21.9500    5.9130   34.0730 O.2       7 ALL1        0.0000 
     34 O          19.8570    3.9670   33.2940 O.2       4 ALP1        0.0000 
     35 CA         22.7555    5.0775   35.8030 C.3       3 GLC5        0.0000 
     36 CA         23.2990    6.0770   34.0610 C.3       9 GLL5        0.0000 
     37 CA         22.2120    4.0780   37.5450 C.3       6 GLP5        0.0000 
     38 CA         22.8465   10.6650   28.8455 C.3       3 GLC5        0.0000 
     39 CA         22.3040   10.3210   30.6750 C.3       9 GLL5        0.0000 
     40 CA         23.0000   11.6170   27.2890 C.3       6 GLP5        0.0000 
     41 CA         23.9678    8.8962   35.4300 C.3       3 GLC5        0.0000 
     42 CA         22.3440    8.1420   34.1110 C.3       9 GLL5        0.0000 
     43 CA         21.3428    7.8260   35.8179 C.3       3 GLC5        0.0000 
     44 CA         20.8960    7.6320   37.4960 C.3       6 GLP5        0.0000 
     45 CA         22.1635    7.1960   35.7790 C.3       3 GLC5        0.0000 
     46 CA         23.5630    7.4430   34.0630 C.3       9 GLL5        0.0000 
     47 CA         23.8215    6.0630   32.2775 C.3       3 GLC5        0.0000 
     48 CA         24.2120    5.3660   30.4930 C.3       6 GLP5        0.0000 
@<TRIPOS>BOND
@<TRIPOS>SUBSTRUCTURE
     1 ALC1       17 GROUP        1 X    ALC  0     ROOT ALC X 1
     2 SEC2        1 GROUP        1 X    SEC  0     **** SEC X 2
     3 GLC5        4 GROUP        1 X    GLC  0     **** GLC X 6
     4 ALP1       19 GROUP        1 Y    ALP  0     ROOT ALP Y 8
     5 SEP2        3 GROUP        1 Y    SEP  0     **** SEP Y 9
     6 GLP5        6 GROUP        1 Y    GLP  0     **** GLP Y 13
     7 ALL1       18 GROUP        1 Z    ALL  0     ROOT ALL Z 15
     8 SEL2        2 GROUP        1 Z    SEL  0     **** SEL Z 16
     9 GLL5        5 GROUP        1 Z    GLL  0     **** GLL Z 20
@<TRIPOS>SET

