#    Name: 3occ_DIH_1_ligand
#    Modification time : Tue Mar 25 03:37:17 2014

@<TRIPOS>MOLECULE
3occ_DIH_1_ligand
   38    40     1     0     0
SMALL
NO_CHARGES


@<TRIPOS>ATOM
      1 O5'        22.1520    8.0910   29.6870 O.3       1 DIH500      0.0000 
      2 C5'        23.0820    9.1050   30.1290 C.3       1 DIH500      0.0000 
      3 C4'        22.3040   10.3210   30.6750 C.3       1 DIH500      0.0000 
      4 C6'        21.4000    9.8910   31.8410 C.3       1 DIH500      0.0000 
      5 C3'        23.3150   11.3100   31.2560 C.3       1 DIH500      0.0000 
      6 O3'        22.7870   12.6550   31.2970 O.3       1 DIH500      0.0000 
      7 C2'        23.5660   10.8450   32.6860 C.3       1 DIH500      0.0000 
      8 N1'        22.2660   10.2490   32.9780 N.4       1 DIH500      0.0000 
      9 C10        22.0560    9.6420   34.2580 C.3       1 DIH500      0.0000 
     10 C9         22.3440    8.1420   34.1110 C.2       1 DIH500      0.0000 
     11 C8         21.3790    7.1480   34.0950 C.2       1 DIH500      0.0000 
     12 N7         21.9500    5.9130   34.0730 N.pl3     1 DIH500      0.0000 
     13 C5         23.2990    6.0770   34.0610 C.3       1 DIH500      0.0000 
     14 C6         24.4300    5.1390   34.0880 C.2       1 DIH500      0.0000 
     15 O6         24.2480    3.8780   34.0550 O.2       1 DIH500      0.0000 
     16 N1         25.6670    5.6550   34.0530 N.am      1 DIH500      0.0000 
     17 C2         25.8610    7.0110   34.0970 C.2       1 DIH500      0.0000 
     18 N3         24.8560    7.9040   34.0980 N.2       1 DIH500      0.0000 
     19 C4         23.5630    7.4430   34.0630 C.3       1 DIH500      0.0000 
     20 H          23.7136    9.4562   29.3102 H         1 DIH500      0.0000 
     21 H          23.7273    8.7376   30.9299 H         1 DIH500      0.0000 
     22 H          21.7456   10.7736   29.9246 H         1 DIH500      0.0000 
     23 H          21.2436    8.8528   31.7865 H         1 DIH500      0.0000 
     24 H          20.5236   10.4715   31.8252 H         1 DIH500      0.0000 
     25 H          24.2214   11.2387   30.7162 H         1 DIH500      0.0000 
     26 H          23.7554   11.6848   33.2925 H         1 DIH500      0.0000 
     27 H          24.3340   10.1245   32.6836 H         1 DIH500      0.0000 
     28 H          21.6523   11.4001   33.2532 H         1 DIH500      0.0000 
     29 H          21.0305    9.7526   34.5978 H         1 DIH500      0.0000 
     30 H          22.7296   10.0382   35.0120 H         1 DIH500      0.0000 
     31 H          20.4214    7.3239   34.0992 H         1 DIH500      0.0000 
     32 H          21.4827    5.0765   34.0670 H         1 DIH500      0.0000 
     33 H          23.3112    6.1137   32.6252 H         1 DIH500      0.0000 
     34 H          26.5004    5.0279   33.9916 H         1 DIH500      0.0000 
     35 H          26.8631    7.3646   34.1320 H         1 DIH500      0.0000 
     36 H          23.5208    7.4362   32.6376 H         1 DIH500      0.0000 
     37 H          21.3081    8.2769   30.1904 H         1 DIH500      0.0000 
     38 H          23.5905   13.2495   31.2641 H         1 DIH500      0.0000 
@<TRIPOS>BOND
     1    2    1 1    
     2   37    1 1    
     3    3    2 1    
     4   20    2 1    
     5   21    2 1    
     6    4    3 1    
     7    5    3 1    
     8   22    3 1    
     9    8    4 1    
    10   23    4 1    
    11   24    4 1    
    12    6    5 1    
    13    7    5 1    
    14   25    5 1    
    15   38    6 1    
    16    8    7 1    
    17   26    7 1    
    18   27    7 1    
    19    9    8 1    
    20   28    8 1    
    21   10    9 1    
    22   29    9 1    
    23   30    9 1    
    24   11   10 2    
    25   19   10 1    
    26   12   11 1    
    27   31   11 1    
    28   13   12 1    
    29   32   12 1    
    30   14   13 1    
    31   19   13 1    
    32   33   13 1    
    33   15   14 2    
    34   16   14 am   
    35   17   16 1    
    36   34   16 1    
    37   18   17 2    
    38   35   17 1    
    39   19   18 1    
    40   36   19 1    
@<TRIPOS>SUBSTRUCTURE
     1 DIH500      1 GROUP   
@<TRIPOS>SET

