#    Name: 1qw5_14W_2_INTS_M
#    Modification time : Mon Mar 24 23:59:43 2014

@<TRIPOS>MOLECULE
1qw5_14W_2_INTS_M
   25     0     6     0     0
SMALL
NO_CHARGES


@<TRIPOS>ATOM
      1 CA        -56.2565  134.7945  -13.8625 C.3       2 GLC5        0.0000 
      2 CA        -56.5440  132.9420  -13.2380 C.3       6 GLL5        0.0000 
      3 CA        -55.9690  136.6470  -14.4870 C.3       4 GLP5        0.0000 
      4 O         -58.4295  133.1365  -15.6500 O.2       1 ALC1        0.0000 
      5 O         -56.9940  132.8930  -16.0490 O.2       5 ALL1        0.0000 
      6 O         -59.8650  133.3800  -15.2510 O.2       3 ALP1        0.0000 
      7 CA        -56.2255  135.1755  -15.7415 C.3       2 GLC5        0.0000 
      8 CA        -56.4820  133.7040  -16.9960 C.3       6 GLL5        0.0000 
      9 CA        -55.2520  135.4325  -16.5470 C.3       2 GLC5        0.0000 
     10 CA        -55.0090  133.5920  -17.3510 C.3       6 GLL5        0.0000 
     11 CA        -55.4950  137.2730  -15.7430 C.3       4 GLP5        0.0000 
     12 CA        -53.7315  134.9710  -18.3495 C.3       2 GLC5        0.0000 
     13 CA        -52.4540  136.3500  -19.3480 C.3       4 GLP5        0.0000 
     14 O         -57.1125  135.6920  -18.5025 O.2       1 ALC1        0.0000 
     15 O         -57.2360  134.5650  -17.6000 O.2       5 ALL1        0.0000 
     16 O         -56.9890  136.8190  -19.4050 O.2       3 ALP1        0.0000 
     17 O         -58.5695  134.6020  -17.3220 O.2       1 ALC1        0.0000 
     18 O         -59.9030  134.6390  -17.0440 O.2       3 ALP1        0.0000 
     19 CA        -55.7712  132.7108  -10.0775 C.3       2 GLC5        0.0000 
     20 CA        -56.8970  131.6340  -11.1850 C.3       6 GLL5        0.0000 
     21 CA        -54.7300  133.1570   -8.6440 C.3       4 GLP5        0.0000 
     22 CA        -54.9974  130.7466  -12.5614 C.3       2 GLC5        0.0000 
     23 CA        -53.1530  130.4500  -13.2150 C.3       4 GLP5        0.0000 
     24 CA        -54.7925  131.2429  -13.8845 C.3       2 GLC5        0.0000 
     25 CA        -56.5240  131.7310  -14.0040 C.3       6 GLL5        0.0000 
@<TRIPOS>BOND
@<TRIPOS>SUBSTRUCTURE
     1 ALC1        4 GROUP        1 X    ALC  0     ROOT ALC X 1
     2 GLC5        1 GROUP        1 X    GLC  0     **** GLC X 6
     3 ALP1        6 GROUP        1 Y    ALP  0     ROOT ALP Y 8
     4 GLP5        3 GROUP        1 Y    GLP  0     **** GLP Y 13
     5 ALL1        5 GROUP        1 Z    ALL  0     ROOT ALL Z 15
     6 GLL5        2 GROUP        1 Z    GLL  0     **** GLL Z 20
@<TRIPOS>SET

