#    Name: 1qw5_14W_2_ligand
#    Modification time : Mon Mar 24 23:59:44 2014

@<TRIPOS>MOLECULE
1qw5_14W_2_ligand
   30    30     1     0     0
SMALL
NO_CHARGES


@<TRIPOS>ATOM
      1 C2        -56.6930  130.4890  -13.3340 C.ar      1 14W904      0.0000 
      2 C3        -56.8800  130.4160  -11.9270 C.ar      1 14W904      0.0000 
      3 C4        -56.8970  131.6340  -11.1850 C.ar      1 14W904      0.0000 
      4 C5        -56.7280  132.8950  -11.8370 C.ar      1 14W904      0.0000 
      5 C6        -56.5440  132.9420  -13.2380 C.ar      1 14W904      0.0000 
      6 C1        -56.5240  131.7310  -14.0040 C.ar      1 14W904      0.0000 
      7 C7        -56.3300  131.7350  -15.4870 C.3       1 14W904      0.0000 
      8 N8        -56.9940  132.8930  -16.0490 N.pl3     1 14W904      0.0000 
      9 C9        -56.4820  133.7040  -16.9960 C.2       1 14W904      0.0000 
     10 C10       -55.0090  133.5920  -17.3510 C.3       1 14W904      0.0000 
     11 N11       -57.2360  134.5650  -17.6000 N.pl3     1 14W904      0.0000 
     12 C12       -57.0550  129.0720  -11.2520 C.3       1 14W904      0.0000 
     13 N13       -58.0920  128.2910  -11.8950 N.4       1 14W904      0.0000 
     14 H         -56.6796  129.6169  -13.8839 H         1 14W904      0.0000 
     15 H         -57.0320  131.6064  -10.1715 H         1 14W904      0.0000 
     16 H         -56.7411  133.7508  -11.2890 H         1 14W904      0.0000 
     17 H         -56.4245  133.8357  -13.7126 H         1 14W904      0.0000 
     18 H         -56.7427  130.8102  -15.9015 H         1 14W904      0.0000 
     19 H         -55.2579  131.7571  -15.7047 H         1 14W904      0.0000 
     20 H         -57.9650  133.0867  -15.6559 H         1 14W904      0.0000 
     21 H         -58.1922  134.5933  -17.3087 H         1 14W904      0.0000 
     22 H         -56.7925  135.1222  -18.3020 H         1 14W904      0.0000 
     23 H         -57.2961  129.2472  -10.1917 H         1 14W904      0.0000 
     24 H         -56.0896  128.5426  -11.2817 H         1 14W904      0.0000 
     25 H         -54.4220  133.7736  -16.5621 H         1 14W904      0.0000 
     26 H         -54.7760  132.6789  -17.6857 H         1 14W904      0.0000 
     27 H         -54.7488  134.2413  -18.0656 H         1 14W904      0.0000 
     28 H         -57.8838  128.1182  -12.8577 H         1 14W904      0.0000 
     29 H         -58.2118  127.4002  -11.4566 H         1 14W904      0.0000 
     30 H         -58.9779  128.7539  -11.8652 H         1 14W904      0.0000 
@<TRIPOS>BOND
     1    2    1 ar   
     2    6    1 ar   
     3   14    1 1    
     4    3    2 ar   
     5   12    2 1    
     6    4    3 ar   
     7   15    3 1    
     8    5    4 ar   
     9   16    4 1    
    10    6    5 ar   
    11   17    5 1    
    12    7    6 1    
    13    8    7 1    
    14   18    7 1    
    15   19    7 1    
    16    9    8 1    
    17   20    8 1    
    18   10    9 1    
    19   11    9 2    
    20   25   10 1    
    21   26   10 1    
    22   27   10 1    
    23   21   11 1    
    24   22   11 1    
    25   13   12 1    
    26   23   12 1    
    27   24   12 1    
    28   28   13 1    
    29   29   13 1    
    30   30   13 1    
@<TRIPOS>SUBSTRUCTURE
     1 14W904      1 GROUP   
@<TRIPOS>SET

