#    Name: 4bcg_T3C_1_INTS_M
#    Modification time : Tue Mar 25 07:31:24 2014

@<TRIPOS>MOLECULE
4bcg_T3C_1_INTS_M
   59     0     9     0     0
SMALL
NO_CHARGES


@<TRIPOS>ATOM
      1 CA         50.8510  -21.8550  -11.4945 C.3       3 GLC5        0.0000 
      2 CA         50.5740  -19.8360  -10.6280 C.3       9 GLL5        0.0000 
      3 CA         51.1280  -23.8740  -12.3610 C.3       6 GLP5        0.0000 
      4 CA         49.0580  -18.7665   -9.8340 C.3       3 GLC5        0.0000 
      5 CA         47.5420  -17.6970   -9.0400 C.3       6 GLP5        0.0000 
      6 CA         52.5870  -14.3270  -15.7070 C.3       3 GLC5        0.0000 
      7 CA         51.1060  -15.3640  -14.7890 C.3       9 GLL5        0.0000 
      8 CA         54.0680  -13.2900  -16.6250 C.3       6 GLP5        0.0000 
      9 CA         49.6780  -16.2635  -16.0580 C.3       3 GLC5        0.0000 
     10 CA         48.2500  -17.1630  -17.3270 C.3       6 GLP5        0.0000 
     11 CA         50.3830  -13.7280  -15.2445 C.3       3 GLC5        0.0000 
     12 CA         49.6600  -12.0920  -15.7000 C.3       6 GLP5        0.0000 
     13 CA         56.5305  -16.2460  -14.5065 C.3       3 GLC5        0.0000 
     14 CA         56.0730  -15.1420  -12.7820 C.3       9 GLL5        0.0000 
     15 CA         56.9880  -17.3500  -16.2310 C.3       6 GLP5        0.0000 
     16 CA         56.8250  -13.5475  -11.5015 C.3       3 GLC5        0.0000 
     17 CA         57.5770  -11.9530  -10.2210 C.3       6 GLP5        0.0000 
     18 CA         55.2480  -14.6770  -11.2100 C.3       3 GLC5        0.0000 
     19 CA         54.4230  -14.2120   -9.6380 C.3       6 GLP5        0.0000 
     20 O          58.3710  -14.7425  -12.3330 O.2       1 ALC1        0.0000 
     21 O          57.4290  -15.6860  -12.7670 O.2       7 ALL1        0.0000 
     22 O          59.3130  -13.7990  -11.8990 O.2       4 ALP1        0.0000 
     23 CA         53.8725  -23.9150  -10.9525 C.3       3 GLC5        0.0000 
     24 CA         55.5460  -23.1440  -10.3380 C.3       9 GLL5        0.0000 
     25 CA         52.1990  -24.6860  -11.5670 C.3       6 GLP5        0.0000 
     26 CA         53.2160  -22.9800  -11.4515 C.3       3 GLC5        0.0000 
     27 CA         54.2330  -21.2740  -11.3360 C.3       9 GLL5        0.0000 
     28 CA         56.6690  -19.6790   -9.5820 C.3       3 GLC5        0.0000 
     29 CA         55.4270  -20.3730  -11.1320 C.3       9 GLL5        0.0000 
     30 CA         57.9110  -18.9850   -8.0320 C.3       6 GLP5        0.0000 
     31 N          56.9315  -12.6045  -12.6965 N.am      2 SEC2        0.0000 
     32 N          55.9440  -13.7770  -12.7810 N.am      8 SEL2        0.0000 
     33 N          57.9190  -11.4320  -12.6120 N.am      5 SEP2        0.0000 
     34 CA         56.0030  -11.7560  -13.7470 C.3       3 GLC5        0.0000 
     35 CA         54.6940  -13.2090  -12.8090 C.3       9 GLL5        0.0000 
     36 CA         57.3120  -10.3030  -14.6850 C.3       6 GLP5        0.0000 
     37 CA         56.1355  -12.5810  -11.5150 C.3       3 GLC5        0.0000 
     38 CA         53.1395  -13.3490  -14.7245 C.3       3 GLC5        0.0000 
     39 CA         52.2110  -13.4080  -12.8240 C.3       9 GLL5        0.0000 
     40 CA         51.9155  -12.0230  -11.6965 C.3       3 GLC5        0.0000 
     41 CA         51.6200  -10.6380  -10.5690 C.3       6 GLP5        0.0000 
     42 CA         51.7995  -11.9005  -13.9510 C.3       3 GLC5        0.0000 
     43 CA         51.3880  -10.3930  -15.0780 C.3       6 GLP5        0.0000 
     44 CA         52.4599  -16.8815  -15.1788 C.3       3 GLC5        0.0000 
     45 CA         51.4730  -16.3520  -13.6650 C.3       9 GLL5        0.0000 
     46 CA         52.9520  -17.6880  -16.8080 C.3       6 GLP5        0.0000 
     47 CA         53.8055  -15.0358  -11.2485 C.3       3 GLC5        0.0000 
     48 CA         52.6460  -16.2920  -12.8720 C.3       9 GLL5        0.0000 
     49 CA         57.1557  -17.4608  -14.3220 C.3       3 GLC5        0.0000 
     50 CA         57.7630  -17.0210  -12.3980 C.3       9 GLL5        0.0000 
     51 CA         60.3547  -16.8320  -10.1113 C.3       3 GLC5        0.0000 
     52 CA         59.1270  -17.2020  -11.9920 C.3       9 GLL5        0.0000 
     53 CA         61.3550  -15.8360   -8.4220 C.3       6 GLP5        0.0000 
     54 CA         58.0807  -19.0944   -9.9265 C.3       3 GLC5        0.0000 
     55 CA         59.5820  -18.4540  -11.6090 C.3       9 GLL5        0.0000 
     56 CA         54.1191  -13.6276  -14.7245 C.3       3 GLC5        0.0000 
     57 CA         53.7300  -15.4270  -12.8460 C.3       9 GLL5        0.0000 
     58 CA         53.7964  -13.8611  -11.2301 C.3       3 GLC5        0.0000 
     59 CA         53.5630  -14.0160  -12.8320 C.3       9 GLL5        0.0000 
@<TRIPOS>BOND
@<TRIPOS>SUBSTRUCTURE
     1 ALC1       20 GROUP        1 X    ALC  0     ROOT ALC X 1
     2 SEC2       31 GROUP        1 X    SEC  0     **** SEC X 2
     3 GLC5        1 GROUP        1 X    GLC  0     **** GLC X 6
     4 ALP1       22 GROUP        1 Y    ALP  0     ROOT ALP Y 8
     5 SEP2       33 GROUP        1 Y    SEP  0     **** SEP Y 9
     6 GLP5        3 GROUP        1 Y    GLP  0     **** GLP Y 13
     7 ALL1       21 GROUP        1 Z    ALL  0     ROOT ALL Z 15
     8 SEL2       32 GROUP        1 Z    SEL  0     **** SEL Z 16
     9 GLL5        2 GROUP        1 Z    GLL  0     **** GLL Z 20
@<TRIPOS>SET

