#    Name: 4bcg_T3C_1_ligand
#    Modification time : Tue Mar 25 07:31:24 2014

@<TRIPOS>MOLECULE
4bcg_T3C_1_ligand
   53    56     1     0     0
SMALL
NO_CHARGES


@<TRIPOS>ATOM
      1 C01        50.5740  -19.8360  -10.6280 C.3       1 T3C1328     0.0000 
      2 N02        50.2220  -19.3400  -11.9470 N.pl3     1 T3C1328     0.0000 
      3 C03        50.9370  -18.1970  -12.4380 C.2       1 T3C1328     0.0000 
      4 N04        50.6050  -17.3500  -13.4110 N.2       1 T3C1328     0.0000 
      5 C05        51.4730  -16.3520  -13.6650 C.2       1 T3C1328     0.0000 
      6 C06        51.1060  -15.3640  -14.7890 C.3       1 T3C1328     0.0000 
      7 C07        52.6460  -16.2920  -12.8720 C.2       1 T3C1328     0.0000 
      8 C08        53.7300  -15.4270  -12.8460 C.ar      1 T3C1328     0.0000 
      9 N09        54.9980  -15.9560  -12.8120 N.ar      1 T3C1328     0.0000 
     10 C10        56.0730  -15.1420  -12.7820 C.ar      1 T3C1328     0.0000 
     11 N11        57.4290  -15.6860  -12.7670 N.pl3     1 T3C1328     0.0000 
     12 C12        57.7630  -17.0210  -12.3980 C.ar      1 T3C1328     0.0000 
     13 C13        59.1270  -17.2020  -11.9920 C.ar      1 T3C1328     0.0000 
     14 C14        59.5820  -18.4540  -11.6090 C.ar      1 T3C1328     0.0000 
     15 C15        58.6980  -19.5510  -11.6230 C.ar      1 T3C1328     0.0000 
     16 C16        57.3610  -19.4050  -12.0260 C.ar      1 T3C1328     0.0000 
     17 N17        56.5160  -20.6180  -12.0290 N.3       1 T3C1328     0.0000 
     18 C18        56.9880  -21.9900  -12.0520 C.3       1 T3C1328     0.0000 
     19 C19        56.9440  -22.7590  -10.7640 C.3       1 T3C1328     0.0000 
     20 C20        55.5460  -23.1440  -10.3380 C.3       1 T3C1328     0.0000 
     21 N21        54.5080  -22.6970  -11.2350 N.4       1 T3C1328     0.0000 
     22 C22        54.2330  -21.2740  -11.3360 C.3       1 T3C1328     0.0000 
     23 C23        55.4270  -20.3730  -11.1320 C.3       1 T3C1328     0.0000 
     24 C24        56.8840  -18.1220  -12.4280 C.ar      1 T3C1328     0.0000 
     25 N25        55.9440  -13.7770  -12.7810 N.ar      1 T3C1328     0.0000 
     26 C26        54.6940  -13.2090  -12.8090 C.ar      1 T3C1328     0.0000 
     27 C27        53.5630  -14.0160  -12.8320 C.ar      1 T3C1328     0.0000 
     28 C28        52.2110  -13.4080  -12.8240 C.1       1 T3C1328     0.0000 
     29 N29        51.1650  -12.9450  -12.8190 N.1       1 T3C1328     0.0000 
     30 S30        52.4700  -17.6320  -11.8770 S.3       1 T3C1328     0.0000 
     31 H          49.5120  -19.7811  -12.4824 H         1 T3C1328     0.0000 
     32 H          58.1992  -15.0381  -13.0495 H         1 T3C1328     0.0000 
     33 H          59.7502  -16.3895  -11.9925 H         1 T3C1328     0.0000 
     34 H          60.5530  -18.5915  -11.3159 H         1 T3C1328     0.0000 
     35 H          59.0420  -20.4793  -11.3309 H         1 T3C1328     0.0000 
     36 H          58.0493  -22.0219  -12.4372 H         1 T3C1328     0.0000 
     37 H          56.4124  -22.5785  -12.8254 H         1 T3C1328     0.0000 
     38 H          57.4098  -22.1572   -9.9624 H         1 T3C1328     0.0000 
     39 H          57.5532  -23.6758  -10.8642 H         1 T3C1328     0.0000 
     40 H          55.3777  -22.7409   -9.3119 H         1 T3C1328     0.0000 
     41 H          55.5158  -24.2531  -10.2253 H         1 T3C1328     0.0000 
     42 H          53.4482  -20.9791  -10.5962 H         1 T3C1328     0.0000 
     43 H          53.7886  -21.0367  -12.3342 H         1 T3C1328     0.0000 
     44 H          55.0736  -19.3161  -11.2169 H         1 T3C1328     0.0000 
     45 H          55.7566  -20.4810  -10.0696 H         1 T3C1328     0.0000 
     46 H          55.9228  -18.0119  -12.7303 H         1 T3C1328     0.0000 
     47 H          54.5868  -12.1828  -12.8131 H         1 T3C1328     0.0000 
     48 H          51.5343  -20.1104  -10.5785 H         1 T3C1328     0.0000 
     49 H          50.4300  -19.1442   -9.9204 H         1 T3C1328     0.0000 
     50 H          50.0277  -20.6339  -10.3733 H         1 T3C1328     0.0000 
     51 H          51.8042  -14.6576  -14.9051 H         1 T3C1328     0.0000 
     52 H          51.0060  -15.8250  -15.6707 H         1 T3C1328     0.0000 
     53 H          50.2424  -14.8950  -14.6039 H         1 T3C1328     0.0000 
@<TRIPOS>BOND
     1    2    1 1    
     2   48    1 1    
     3   49    1 1    
     4   50    1 1    
     5    3    2 1    
     6   31    2 1    
     7    4    3 2    
     8   30    3 1    
     9    5    4 1    
    10    6    5 1    
    11    7    5 2    
    12   51    6 1    
    13   52    6 1    
    14   53    6 1    
    15    8    7 1    
    16   30    7 1    
    17    9    8 ar   
    18   27    8 ar   
    19   10    9 ar   
    20   11   10 1    
    21   25   10 ar   
    22   12   11 1    
    23   32   11 1    
    24   13   12 ar   
    25   24   12 ar   
    26   14   13 ar   
    27   33   13 1    
    28   15   14 ar   
    29   34   14 1    
    30   16   15 ar   
    31   35   15 1    
    32   17   16 1    
    33   24   16 ar   
    34   18   17 1    
    35   23   17 1    
    36   19   18 1    
    37   36   18 1    
    38   37   18 1    
    39   20   19 1    
    40   38   19 1    
    41   39   19 1    
    42   21   20 1    
    43   40   20 1    
    44   41   20 1    
    45   22   21 1    
    46   23   22 1    
    47   42   22 1    
    48   43   22 1    
    49   44   23 1    
    50   45   23 1    
    51   46   24 1    
    52   26   25 ar   
    53   27   26 ar   
    54   47   26 1    
    55   28   27 1    
    56   29   28 3    
@<TRIPOS>SUBSTRUCTURE
     1 T3C1328     1 GROUP   
@<TRIPOS>SET

