#    Name: 1jyl_CDC_2_INTS_M
#    Modification time : Mon Apr  7 13:09:43 2014

@<TRIPOS>MOLECULE
1jyl_CDC_2_INTS_M
   63     0    15     0     0
SMALL
NO_CHARGES


@<TRIPOS>ATOM
      1 N          -0.2990   50.9605   17.6825 N.am      2 SEC2        0.0000 
      2 N           0.2770   50.0760   16.7110 N.am     12 SEL2        0.0000 
      3 N          -0.8750   51.8450   18.6540 N.am      7 SEP2        0.0000 
      4 N           2.7960   51.4775   17.2740 N.am      2 SEC2        0.0000 
      5 N           1.4890   51.8660   16.6430 N.am     12 SEL2        0.0000 
      6 N           4.1030   51.0890   17.9050 N.am      7 SEP2        0.0000 
      7 O          -0.6355   46.8230   17.4795 O.2       1 ALC1        0.0000 
      8 O          -1.0710   48.2360   16.8680 O.2      11 ALL1        0.0000 
      9 O          -0.2000   45.4100   18.0910 O.2       6 ALP1        0.0000 
     10 CA          2.4470   53.2425   14.5705 C.3       5 GLC5        0.0000 
     11 CA          2.7540   51.2850   14.1360 C.3      15 GLL5        0.0000 
     12 CA          2.1400   55.2000   15.0050 C.3      10 GLP5        0.0000 
     13 CA          0.5885   51.6135   14.2475 C.3       5 GLC5        0.0000 
     14 CA         -1.5770   51.9420   14.3590 C.3      10 GLP5        0.0000 
     15 N           4.1625   49.4445   15.6740 N.am      2 SEC2        0.0000 
     16 N           4.9180   50.3920   14.7390 N.am     12 SEL2        0.0000 
     17 N           3.4070   48.4970   16.6090 N.am      7 SEP2        0.0000 
     18 CA          2.6900   53.6730   13.5195 C.3       5 GLC5        0.0000 
     19 CA          3.2400   52.1460   12.0340 C.3      15 GLL5        0.0000 
     20 N           0.6675   52.1065   12.5090 N.am      2 SEC2        0.0000 
     21 N           2.1890   51.7410   12.9100 N.am     12 SEL2        0.0000 
     22 N          -0.8540   52.4720   12.1080 N.am      7 SEP2        0.0000 
     23 O           5.0955   53.2585   13.8545 O.2       1 ALC1        0.0000 
     24 O           5.4430   52.3630   12.8410 O.2      11 ALL1        0.0000 
     25 O           4.7480   54.1540   14.8680 O.2       6 ALP1        0.0000 
     26 NZ          5.5130   48.9550    9.5320 N.4       3 LYC4        0.0000 
     27 NZ          4.1870   49.3220    9.4110 N.4      13 LYL4        0.0000 
     28 NZ          6.8390   48.5880    9.6530 N.4       8 LYP4        0.0000 
     29 N           5.5130   48.9550    9.5320 N.am      2 SEC2        0.0000 
     30 N           4.1870   49.3220    9.4110 N.am     12 SEL2        0.0000 
     31 N           6.8390   48.5880    9.6530 N.am      7 SEP2        0.0000 
     32 Zn          4.0600   50.3940    6.8705 Zn        4 ZIC7        0.0000 
     33 Zn          3.0680   49.8820    6.4710 Zn       14 ZIL7        0.0000 
     34 Zn          5.0520   50.9060    7.2700 Zn        9 ZIP7        0.0000 
     35 CA         -3.9255   53.1170    5.1000 C.3       5 GLC5        0.0000 
     36 CA         -2.7930   53.6390    6.4810 C.3      15 GLL5        0.0000 
     37 CA         -5.0580   52.5950    3.7190 C.3      10 GLP5        0.0000 
     38 CA         -3.4655   52.3650    7.6985 C.3       5 GLC5        0.0000 
     39 CA         -4.1380   51.0910    8.9160 C.3      10 GLP5        0.0000 
     40 CA         -3.8575   54.9215    7.2140 C.3       5 GLC5        0.0000 
     41 CA         -4.9220   56.2040    7.9470 C.3      10 GLP5        0.0000 
     42 CA         -2.7130   53.8900    3.3125 C.3       5 GLC5        0.0000 
     43 CA         -1.3490   53.9460    4.5630 C.3      15 GLL5        0.0000 
     44 CA         -4.0770   53.8340    2.0620 C.3      10 GLP5        0.0000 
     45 CA         -1.2810   55.9160    3.8020 C.3       5 GLC5        0.0000 
     46 CA         -1.2130   57.8860    3.0410 C.3      10 GLP5        0.0000 
     47 CA         -3.5850   52.1745    4.4425 C.3       5 GLC5        0.0000 
     48 CA         -2.1120   51.7540    5.1660 C.3      15 GLL5        0.0000 
     49 CA         -3.0675   50.5330    6.2370 C.3       5 GLC5        0.0000 
     50 CA         -4.0230   49.3120    7.3080 C.3      10 GLP5        0.0000 
     51 CA          2.0820   48.0312   15.2643 C.3       5 GLC5        0.0000 
     52 CA          1.2930   49.2280   14.3450 C.3      15 GLL5        0.0000 
     53 CA          3.3410   47.2390   15.8650 C.3      10 GLP5        0.0000 
     54 CA         -0.3770   50.3828   14.5113 C.3       5 GLC5        0.0000 
     55 CA          4.5267   51.8252   15.4480 C.3       5 GLC5        0.0000 
     56 CA          5.6780   52.7390   16.9850 C.3      10 GLP5        0.0000 
     57 CA          3.3582   49.0752   14.8880 C.3       5 GLC5        0.0000 
     58 CA          3.9970   50.5380   13.6860 C.3      15 GLL5        0.0000 
     59 CA          3.7757   53.7365   10.6297 C.3       5 GLC5        0.0000 
     60 CA          4.3260   55.5910    9.9230 C.3      10 GLP5        0.0000 
     61 CA         -1.0677   51.0348    7.5732 C.3       5 GLC5        0.0000 
     62 CA          0.4710   51.7100    6.1990 C.3      15 GLL5        0.0000 
     63 CA         -2.1580   49.7450    8.7690 C.3      10 GLP5        0.0000 
@<TRIPOS>BOND
@<TRIPOS>SUBSTRUCTURE
     1 ALC1        7 GROUP        1 X    ALC  0     ROOT ALC X 1
     2 SEC2        1 GROUP        1 X    SEC  0     **** SEC X 2
     3 LYC4       26 GROUP        1 X    LYC  0     **** LYC X 4
     4 ZIC7       32 GROUP        1 X    ZIC  0     **** ZIC X 5
     5 GLC5       10 GROUP        1 X    GLC  0     **** GLC X 6
     6 ALP1        9 GROUP        1 Y    ALP  0     ROOT ALP Y 8
     7 SEP2        3 GROUP        1 Y    SEP  0     **** SEP Y 9
     8 LYP4       28 GROUP        1 Y    LYP  0     **** LYP Y 11
     9 ZIP7       34 GROUP        1 Y    ZIP  0     **** ZIP Y 12
    10 GLP5       12 GROUP        1 Y    GLP  0     **** GLP Y 13
    11 ALL1        8 GROUP        1 Z    ALL  0     ROOT ALL Z 15
    12 SEL2        2 GROUP        1 Z    SEL  0     **** SEL Z 16
    13 LYL4       27 GROUP        1 Z    LYL  0     **** LYL Z 18
    14 ZIL7       33 GROUP        1 Z    ZIL  0     **** ZIL Z 19
    15 GLL5       11 GROUP        1 Z    GLL  0     **** GLL Z 20
@<TRIPOS>SET

