#    Name: 1jyl_CDC_2_ligand
#    Modification time : Mon Apr  7 13:09:43 2014

@<TRIPOS>MOLECULE
1jyl_CDC_2_ligand
   56    57     1     0     0
SMALL
NO_CHARGES


@<TRIPOS>ATOM
      1 N1          1.7430   50.4300   14.8570 N.am      1 CDC2991     0.0000 
      2 C2          1.1950   50.8120   16.0710 C.2       1 CDC2991     0.0000 
      3 N3          0.2770   50.0760   16.7110 N.2       1 CDC2991     0.0000 
      4 C4         -0.1650   48.9050   16.1790 C.2       1 CDC2991     0.0000 
      5 C5          0.3530   48.4190   14.9820 C.2       1 CDC2991     0.0000 
      6 C6          1.2930   49.2280   14.3450 C.2       1 CDC2991     0.0000 
      7 O2          1.4890   51.8660   16.6430 O.2       1 CDC2991     0.0000 
      8 N4         -1.0710   48.2360   16.8680 N.pl3     1 CDC2991     0.0000 
      9 C1'         2.7540   51.2850   14.1360 C.3       1 CDC2991     0.0000 
     10 C2'         3.9970   50.5380   13.6860 C.3       1 CDC2991     0.0000 
     11 O2'         4.9180   50.3920   14.7390 O.3       1 CDC2991     0.0000 
     12 C3'         4.4720   51.3640   12.5290 C.3       1 CDC2991     0.0000 
     13 C4'         3.2400   52.1460   12.0340 C.3       1 CDC2991     0.0000 
     14 O4'         2.1890   51.7410   12.9100 O.3       1 CDC2991     0.0000 
     15 O3'         5.4430   52.3630   12.8410 O.3       1 CDC2991     0.0000 
     16 C5'         3.2110   51.6180   10.6390 C.3       1 CDC2991     0.0000 
     17 O5'         2.2070   50.6790   10.3510 O.3       1 CDC2991     0.0000 
     18 PA          2.6820   49.1910    9.7750 P.3       1 CDC2991     0.0000 
     19 O1A         2.5340   48.1390   10.9260 O.co2     1 CDC2991     0.0000 
     20 O2A         4.1870   49.3220    9.4110 O.co2     1 CDC2991     0.0000 
     21 O3A         1.7740   48.7470    8.4450 O.3       1 CDC2991     0.0000 
     22 PB          1.6530   49.6440    7.0710 P.3       1 CDC2991     0.0000 
     23 O1B         0.7540   51.0040    7.3530 O.3       1 CDC2991     0.0000 
     24 O2B         3.0680   49.8820    6.4710 O.co2     1 CDC2991     0.0000 
     25 O3B         0.7600   48.7820    6.1140 O.co2     1 CDC2991     0.0000 
     26 C14         0.4710   51.7100    6.1990 C.3       1 CDC2991     0.0000 
     27 C15        -0.4260   52.9390    6.5560 C.3       1 CDC2991     0.0000 
     28 N11        -1.6730   53.0720    5.7020 N.4       1 CDC2991     0.0000 
     29 C16        -2.7930   53.6390    6.4810 C.3       1 CDC2991     0.0000 
     30 C17        -1.3490   53.9460    4.5630 C.3       1 CDC2991     0.0000 
     31 C18        -2.1120   51.7540    5.1660 C.3       1 CDC2991     0.0000 
     32 H           0.0677   47.5392   14.5994 H         1 CDC2991     0.0000 
     33 H           1.6797   48.8993   13.4197 H         1 CDC2991     0.0000 
     34 H          -1.9275   48.7180   17.0529 H         1 CDC2991     0.0000 
     35 H          -0.8184   47.3081   17.1424 H         1 CDC2991     0.0000 
     36 H           3.0495   52.1120   14.7392 H         1 CDC2991     0.0000 
     37 H           3.6483   49.5878   13.2884 H         1 CDC2991     0.0000 
     38 H           4.7736   50.7357   11.7215 H         1 CDC2991     0.0000 
     39 H           3.4956   53.1469   12.0575 H         1 CDC2991     0.0000 
     40 H           4.2347   51.1931   10.4168 H         1 CDC2991     0.0000 
     41 H           3.1429   52.5058    9.9426 H         1 CDC2991     0.0000 
     42 H          -0.0884   51.1281    5.4562 H         1 CDC2991     0.0000 
     43 H           1.3623   52.1149    5.7042 H         1 CDC2991     0.0000 
     44 H           0.1896   53.8472    6.4577 H         1 CDC2991     0.0000 
     45 H          -0.7102   52.8538    7.6168 H         1 CDC2991     0.0000 
     46 H          -3.0262   53.0664    7.2669 H         1 CDC2991     0.0000 
     47 H          -2.5760   54.5486    6.8352 H         1 CDC2991     0.0000 
     48 H          -3.6215   53.7296    5.9283 H         1 CDC2991     0.0000 
     49 H          -1.0608   54.8554    4.8629 H         1 CDC2991     0.0000 
     50 H          -0.6068   53.5718    4.0071 H         1 CDC2991     0.0000 
     51 H          -2.1342   54.0725    3.9568 H         1 CDC2991     0.0000 
     52 H          -1.4081   51.3325    4.5943 H         1 CDC2991     0.0000 
     53 H          -2.3214   51.1063    5.8985 H         1 CDC2991     0.0000 
     54 H          -2.9350   51.8371    4.6041 H         1 CDC2991     0.0000 
     55 H           5.5276   51.1808   14.6607 H         1 CDC2991     0.0000 
     56 H           4.9123   53.1514   13.1520 H         1 CDC2991     0.0000 
@<TRIPOS>BOND
     1    2    1 am   
     2    6    1 1    
     3    9    1 1    
     4    3    2 1    
     5    7    2 2    
     6    4    3 2    
     7    5    4 1    
     8    8    4 1    
     9    6    5 2    
    10   32    5 1    
    11   33    6 1    
    12   34    8 1    
    13   35    8 1    
    14   10    9 1    
    15   14    9 1    
    16   36    9 1    
    17   11   10 1    
    18   12   10 1    
    19   37   10 1    
    20   55   11 1    
    21   13   12 1    
    22   15   12 1    
    23   38   12 1    
    24   14   13 1    
    25   16   13 1    
    26   39   13 1    
    27   56   15 1    
    28   17   16 1    
    29   40   16 1    
    30   41   16 1    
    31   18   17 1    
    32   19   18 ar   
    33   20   18 ar   
    34   21   18 1    
    35   22   21 1    
    36   23   22 1    
    37   24   22 ar   
    38   25   22 ar   
    39   26   23 1    
    40   27   26 1    
    41   42   26 1    
    42   43   26 1    
    43   28   27 1    
    44   44   27 1    
    45   45   27 1    
    46   29   28 1    
    47   30   28 1    
    48   31   28 1    
    49   46   29 1    
    50   47   29 1    
    51   48   29 1    
    52   49   30 1    
    53   50   30 1    
    54   51   30 1    
    55   52   31 1    
    56   53   31 1    
    57   54   31 1    
@<TRIPOS>SUBSTRUCTURE
     1 CDC2991     1 GROUP   
@<TRIPOS>SET

