#    Name: 2web_PP4_1_INTS_M
#    Modification time : Tue Mar 25 04:08:59 2014

@<TRIPOS>MOLECULE
2web_PP4_1_INTS_M
   60     0     9     0     0
SMALL
NO_CHARGES


@<TRIPOS>ATOM
      1 N          17.6395    8.8215   18.4365 N.am      2 SEC2        0.0000 
      2 N          18.2010    7.8270   19.5050 N.am      8 SEL2        0.0000 
      3 N          17.0780    9.8160   17.3680 N.am      5 SEP2        0.0000 
      4 CA         24.2200    1.6915   16.0975 C.3       3 GLC5        0.0000 
      5 CA         23.9520    3.3420   17.5730 C.3       9 GLL5        0.0000 
      6 CA         24.4880    0.0410   14.6220 C.3       6 GLP5        0.0000 
      7 CA         24.1370    1.9260   19.9395 C.3       3 GLC5        0.0000 
      8 CA         24.0190    3.7490   18.8890 C.3       9 GLL5        0.0000 
      9 CA         24.2550    0.1030   20.9900 C.3       6 GLP5        0.0000 
     10 CA         24.9455    4.3620   21.8720 C.3       3 GLC5        0.0000 
     11 CA         24.1430    5.6960   20.4930 C.3       9 GLL5        0.0000 
     12 CA         25.7480    3.0280   23.2510 C.3       6 GLP5        0.0000 
     13 CA         23.0905   10.7820   18.4530 C.3       3 GLC5        0.0000 
     14 CA         24.1310    9.4520   19.9380 C.3       9 GLL5        0.0000 
     15 CA         22.0500   12.1120   16.9680 C.3       6 GLP5        0.0000 
     16 N          21.7910    7.4760   24.3720 N.am      2 SEC2        0.0000 
     17 N          21.9940    8.3710   23.0640 N.am      8 SEL2        0.0000 
     18 N          21.5880    6.5810   25.6800 N.am      5 SEP2        0.0000 
     19 CA         17.8865   10.2555   22.1395 C.3       3 GLC5        0.0000 
     20 CA         18.7630    9.2450   23.8980 C.3       9 GLL5        0.0000 
     21 CA         17.0100   11.2660   20.3810 C.3       6 GLP5        0.0000 
     22 CA         16.9615   10.0120   23.9205 C.3       3 GLC5        0.0000 
     23 CA         15.1600   10.7790   23.9430 C.3       6 GLP5        0.0000 
     24 CA         16.5135    9.1795   23.4175 C.3       3 GLC5        0.0000 
     25 CA         17.8670    7.5800   22.8920 C.3       9 GLL5        0.0000 
     26 O          21.5840    9.7750   19.4885 O.2       1 ALC1        0.0000 
     27 O          21.9330    9.4890   21.0870 O.2       7 ALL1        0.0000 
     28 O          21.2350   10.0610   17.8900 O.2       4 ALP1        0.0000 
     29 CA         24.0385   14.6155   22.0760 C.3       3 GLC5        0.0000 
     30 CA         23.5560   13.0060   23.4940 C.3       9 GLL5        0.0000 
     31 CA         24.5210   16.2250   20.6580 C.3       6 GLP5        0.0000 
     32 CA         23.6580   15.5990   24.6070 C.3       3 GLC5        0.0000 
     33 CA         22.4910   13.9300   24.0690 C.3       9 GLL5        0.0000 
     34 CA         24.8250   17.2680   25.1450 C.3       6 GLP5        0.0000 
     35 N          24.0110    9.9610   25.2705 N.am      2 SEC2        0.0000 
     36 N          24.5800   11.1490   24.6340 N.am      8 SEL2        0.0000 
     37 N          23.4420    8.7730   25.9070 N.am      5 SEP2        0.0000 
     38 CA         24.8170    7.0700   22.3167 C.3       3 GLC5        0.0000 
     39 CA         24.1390    7.0520   20.7600 C.3       9 GLL5        0.0000 
     40 CA         25.4930    7.7660   24.0070 C.3       6 GLP5        0.0000 
     41 CA         25.2877    9.5360   21.5678 C.3       3 GLC5        0.0000 
     42 CA         26.8510    9.3720   22.5950 C.3       6 GLP5        0.0000 
     43 CA         25.8319    8.8419   18.6579 C.3       3 GLC5        0.0000 
     44 CA         27.5850    9.0920   17.8280 C.3       6 GLP5        0.0000 
     45 CA         20.5865    8.6830   25.1055 C.3       3 GLC5        0.0000 
     46 CA         19.2910    7.9150   23.3820 C.3       9 GLL5        0.0000 
     47 CA         22.1460    8.7860   26.5710 C.3       6 GLP5        0.0000 
     48 CA         19.7065    6.2695   23.5617 C.3       3 GLC5        0.0000 
     49 CA         19.9990    8.1170   22.0240 C.3       9 GLL5        0.0000 
     50 CA         20.6570    4.7410   24.3260 C.3       6 GLP5        0.0000 
     51 CA         21.4030   15.5310   24.1265 C.3       3 GLC5        0.0000 
     52 CA         21.5050   13.2300   24.9470 C.3       9 GLL5        0.0000 
     53 CA         20.8080   17.4820   23.7450 C.3       6 GLP5        0.0000 
     54 CA         21.1560   10.5286   26.5489 C.3       3 GLC5        0.0000 
     55 CA         19.5750   11.8200   25.2120 C.3       9 GLL5        0.0000 
     56 CA         18.7987   13.2602   27.9772 C.3       3 GLC5        0.0000 
     57 CA         19.6810   11.9290   26.5950 C.3       9 GLL5        0.0000 
     58 CA         17.4050   14.2220   29.0820 C.3       6 GLP5        0.0000 
     59 CA         18.4805   13.4007   25.1525 C.3       3 GLC5        0.0000 
     60 CA         17.1030   14.7670   24.6050 C.3       6 GLP5        0.0000 
@<TRIPOS>BOND
@<TRIPOS>SUBSTRUCTURE
     1 ALC1       26 GROUP        1 X    ALC  0     ROOT ALC X 1
     2 SEC2        1 GROUP        1 X    SEC  0     **** SEC X 2
     3 GLC5        4 GROUP        1 X    GLC  0     **** GLC X 6
     4 ALP1       28 GROUP        1 Y    ALP  0     ROOT ALP Y 8
     5 SEP2        3 GROUP        1 Y    SEP  0     **** SEP Y 9
     6 GLP5        6 GROUP        1 Y    GLP  0     **** GLP Y 13
     7 ALL1       27 GROUP        1 Z    ALL  0     ROOT ALL Z 15
     8 SEL2        2 GROUP        1 Z    SEL  0     **** SEL Z 16
     9 GLL5        5 GROUP        1 Z    GLL  0     **** GLL Z 20
@<TRIPOS>SET

