#    Name: 2web_PP4_1_ligand
#    Modification time : Tue Mar 25 04:09:00 2014

@<TRIPOS>MOLECULE
2web_PP4_1_ligand
   70    72     1     0     0
SMALL
NO_CHARGES


@<TRIPOS>ATOM
      1 OI         18.2010    7.8270   19.5050 O.2       1 PP4326      0.0000 
      2 C1         23.9110    5.6370   16.7200 C.ar      1 PP4326      0.0000 
      3 C2         23.9160    4.2660   16.5030 C.ar      1 PP4326      0.0000 
      4 C3         23.9520    3.3420   17.5730 C.ar      1 PP4326      0.0000 
      5 C4         24.0190    3.7490   18.8890 C.ar      1 PP4326      0.0000 
      6 C5         24.0780    5.1750   19.1690 C.ar      1 PP4326      0.0000 
      7 C6         24.0170    6.1060   18.0910 C.ar      1 PP4326      0.0000 
      8 C7         23.9750    7.4950   18.3910 C.ar      1 PP4326      0.0000 
      9 C8         24.0780    7.9680   19.6840 C.ar      1 PP4326      0.0000 
     10 C9         24.1390    7.0520   20.7600 C.ar      1 PP4326      0.0000 
     11 C10        24.1430    5.6960   20.4930 C.ar      1 PP4326      0.0000 
     12 C12        19.1540    7.1550   19.9500 C.2       1 PP4326      0.0000 
     13 C13        24.1310    9.4520   19.9380 C.3       1 PP4326      0.0000 
     14 C14        23.3180    9.9480   21.1430 C.3       1 PP4326      0.0000 
     15 NV         20.0120    7.0900   20.9680 N.am      1 PP4326      0.0000 
     16 CAV        19.9990    8.1170   22.0240 C.3       1 PP4326      0.0000 
     17 CV         21.4120    8.7170   22.0390 C.2       1 PP4326      0.0000 
     18 OV         21.9940    8.3710   23.0640 O.2       1 PP4326      0.0000 
     19 CBV        19.2910    7.9150   23.3820 C.3       1 PP4326      0.0000 
     20 CV1        18.7630    9.2450   23.8980 C.3       1 PP4326      0.0000 
     21 CV2        17.8670    7.5800   22.8920 C.3       1 PP4326      0.0000 
     22 NL         21.9330    9.4890   21.0870 N.am      1 PP4326      0.0000 
     23 P          23.3940   11.7670   21.2360 P.3       1 PP4326      0.0000 
     24 O          24.7780   12.1980   21.1850 O.co2     1 PP4326      0.0000 
     25 OH         22.5240   12.3700   20.2390 O.co2     1 PP4326      0.0000 
     26 CA         23.5560   13.0060   23.4940 C.3       1 PP4326      0.0000 
     27 CB         22.4910   13.9300   24.0690 C.3       1 PP4326      0.0000 
     28 CG         21.5050   13.2300   24.9470 C.ar      1 PP4326      0.0000 
     29 CD1        20.4950   12.4600   24.3980 C.ar      1 PP4326      0.0000 
     30 CD2        21.6130   13.3050   26.3250 C.ar      1 PP4326      0.0000 
     31 CE1        19.5750   11.8200   25.2120 C.ar      1 PP4326      0.0000 
     32 CE2        20.7040   12.6680   27.1500 C.ar      1 PP4326      0.0000 
     33 CZ         19.6810   11.9290   26.5950 C.ar      1 PP4326      0.0000 
     34 C          24.3280   12.3200   24.6100 C.2       1 PP4326      0.0000 
     35 CS         25.8280   12.6910   26.4180 C.3       1 PP4326      0.0000 
     36 OP         22.9560   12.0280   22.6990 O.3       1 PP4326      0.0000 
     37 OS         24.7230   13.1570   25.5660 O.3       1 PP4326      0.0000 
     38 OE         24.5800   11.1490   24.6340 O.2       1 PP4326      0.0000 
     39 H          23.8380    6.3058   15.9762 H         1 PP4326      0.0000 
     40 H          23.8929    3.8978   15.5331 H         1 PP4326      0.0000 
     41 H          23.9265    2.3269   17.3448 H         1 PP4326      0.0000 
     42 H          24.0287    3.1016   19.6622 H         1 PP4326      0.0000 
     43 H          23.8629    8.1606   17.6009 H         1 PP4326      0.0000 
     44 H          24.1792    7.4031   21.7174 H         1 PP4326      0.0000 
     45 H          24.1952    5.0134   21.2793 H         1 PP4326      0.0000 
     46 H          19.4034    6.2280   19.2077 H         1 PP4326      0.0000 
     47 H          23.7767    9.9928   19.0344 H         1 PP4326      0.0000 
     48 H          25.1880    9.7632   20.0811 H         1 PP4326      0.0000 
     49 H          23.8125    9.6668   22.0602 H         1 PP4326      0.0000 
     50 H          20.7119    6.3421   21.0728 H         1 PP4326      0.0000 
     51 H          19.3898    9.0177   21.5110 H         1 PP4326      0.0000 
     52 H          19.6112    7.3199   23.9944 H         1 PP4326      0.0000 
     53 H          21.3846    9.8026   20.2606 H         1 PP4326      0.0000 
     54 H          24.2542   13.6083   22.9286 H         1 PP4326      0.0000 
     55 H          21.9616   14.4197   23.2322 H         1 PP4326      0.0000 
     56 H          22.9925   14.7323   24.6391 H         1 PP4326      0.0000 
     57 H          20.4258   12.3610   23.3707 H         1 PP4326      0.0000 
     58 H          22.3908   13.8495   26.7464 H         1 PP4326      0.0000 
     59 H          18.8150   11.2654   24.7982 H         1 PP4326      0.0000 
     60 H          20.7924   12.7464   28.1722 H         1 PP4326      0.0000 
     61 H          18.9936   11.4563   27.1983 H         1 PP4326      0.0000 
     62 H          19.4976    9.9109   24.0280 H         1 PP4326      0.0000 
     63 H          18.1052    9.6540   23.2655 H         1 PP4326      0.0000 
     64 H          18.2995    9.1442   24.7783 H         1 PP4326      0.0000 
     65 H          17.8744    6.8736   22.1843 H         1 PP4326      0.0000 
     66 H          17.2879    7.2445   23.6350 H         1 PP4326      0.0000 
     67 H          17.4103    8.3800   22.5029 H         1 PP4326      0.0000 
     68 H          26.6532   12.5021   25.8857 H         1 PP4326      0.0000 
     69 H          26.0746   13.3691   27.1103 H         1 PP4326      0.0000 
     70 H          25.5931   11.8488   26.9033 H         1 PP4326      0.0000 
@<TRIPOS>BOND
     1   12    1 2    
     2    3    2 ar   
     3    7    2 ar   
     4   39    2 1    
     5    4    3 ar   
     6   40    3 1    
     7    5    4 ar   
     8   41    4 1    
     9    6    5 ar   
    10   42    5 1    
    11    7    6 ar   
    12   11    6 ar   
    13    8    7 ar   
    14    9    8 ar   
    15   43    8 1    
    16   10    9 ar   
    17   13    9 1    
    18   11   10 ar   
    19   44   10 1    
    20   45   11 1    
    21   15   12 am   
    22   46   12 1    
    23   14   13 1    
    24   47   13 1    
    25   48   13 1    
    26   22   14 1    
    27   23   14 1    
    28   49   14 1    
    29   16   15 1    
    30   50   15 1    
    31   17   16 1    
    32   19   16 1    
    33   51   16 1    
    34   18   17 2    
    35   22   17 am   
    36   20   19 1    
    37   21   19 1    
    38   52   19 1    
    39   62   20 1    
    40   63   20 1    
    41   64   20 1    
    42   65   21 1    
    43   66   21 1    
    44   67   21 1    
    45   53   22 1    
    46   24   23 ar   
    47   25   23 ar   
    48   36   23 1    
    49   27   26 1    
    50   34   26 1    
    51   36   26 1    
    52   54   26 1    
    53   28   27 1    
    54   55   27 1    
    55   56   27 1    
    56   29   28 ar   
    57   30   28 ar   
    58   31   29 ar   
    59   57   29 1    
    60   32   30 ar   
    61   58   30 1    
    62   33   31 ar   
    63   59   31 1    
    64   33   32 ar   
    65   60   32 1    
    66   61   33 1    
    67   37   34 1    
    68   38   34 2    
    69   37   35 1    
    70   68   35 1    
    71   69   35 1    
    72   70   35 1    
@<TRIPOS>SUBSTRUCTURE
     1 PP4326      1 GROUP   
@<TRIPOS>SET

