#    Name: 3lff_Z83_1_INTS_M
#    Modification time : Mon Mar 24 21:36:02 2014

@<TRIPOS>MOLECULE
3lff_Z83_1_INTS_M
   73     0     9     0     0
SMALL
NO_CHARGES


@<TRIPOS>ATOM
      1 CA         15.8040  -11.3695  -20.3750 C.3       3 GLC5        0.0000 
      2 CA         15.1630   -9.9340  -19.3630 C.3       9 GLL5        0.0000 
      3 CA         16.4450  -12.8050  -21.3870 C.3       6 GLP5        0.0000 
      4 CA         14.6350  -10.0670  -21.3310 C.3       3 GLC5        0.0000 
      5 CA         14.1070  -10.2000  -23.2990 C.3       6 GLP5        0.0000 
      6 CA         12.2430   -7.7840  -17.7370 C.3       3 GLC5        0.0000 
      7 CA         13.7150   -9.1290  -17.4930 C.3       9 GLL5        0.0000 
      8 CA         10.7710   -6.4390  -17.9810 C.3       6 GLP5        0.0000 
      9 CA         14.0425   -8.9690  -21.4325 C.3       3 GLC5        0.0000 
     10 CA         13.9780   -7.7380  -19.5660 C.3       9 GLL5        0.0000 
     11 CA         12.3255   -8.9225  -20.3040 C.3       3 GLC5        0.0000 
     12 CA         10.6730  -10.1070  -21.0420 C.3       6 GLP5        0.0000 
     13 CA         12.3745   -7.0885  -18.7735 C.3       3 GLC5        0.0000 
     14 CA         12.4300   -6.9240  -20.5300 C.3       3 GLC5        0.0000 
     15 CA         10.8820   -6.1100  -21.4940 C.3       6 GLP5        0.0000 
     16 CA         14.3770   -6.0470  -20.3380 C.3       3 GLC5        0.0000 
     17 CA         14.7760   -4.3560  -21.1100 C.3       6 GLP5        0.0000 
     18 CA         14.4445   -6.2010  -18.0255 C.3       3 GLC5        0.0000 
     19 CA         14.9110   -4.6640  -16.4850 C.3       6 GLP5        0.0000 
     20 N          16.8350   -4.4410  -19.1415 N.am      2 SEC2        0.0000 
     21 N          18.2210   -4.8930  -19.4780 N.am      8 SEL2        0.0000 
     22 N          15.4490   -3.9890  -18.8050 N.am      5 SEP2        0.0000 
     23 N          16.6175   -9.0400  -11.0120 N.am      2 SEC2        0.0000 
     24 N          17.3430   -7.9960  -10.0820 N.am      8 SEL2        0.0000 
     25 N          15.8920  -10.0840  -11.9420 N.am      5 SEP2        0.0000 
     26 CA         23.7210   -2.1060  -19.1500 C.3       3 GLC5        0.0000 
     27 CA         22.1330   -2.3560  -20.4380 C.3       9 GLL5        0.0000 
     28 CA         25.3090   -1.8560  -17.8620 C.3       6 GLP5        0.0000 
     29 CA         18.2145   -3.9635  -13.1645 C.3       3 GLC5        0.0000 
     30 CA         18.5860   -6.1320  -13.2930 C.3       9 GLL5        0.0000 
     31 CA         17.8430   -1.7950  -13.0360 C.3       6 GLP5        0.0000 
     32 CA         18.4980  -10.3530  -12.2205 C.3       3 GLC5        0.0000 
     33 CA         18.4410   -8.5270  -13.1890 C.3       9 GLL5        0.0000 
     34 CA         18.5550  -12.1790  -11.2520 C.3       6 GLP5        0.0000 
     35 CA         17.1785   -7.0195  -20.4620 C.3       3 GLC5        0.0000 
     36 CA         16.8440   -7.2590  -18.5570 C.3       9 GLL5        0.0000 
     37 CA         17.5130   -6.7800  -22.3670 C.3       6 GLP5        0.0000 
     38 CA         15.8100   -5.8075  -19.8335 C.3       3 GLC5        0.0000 
     39 CA         20.5150   -7.4165   -9.6040 C.3       3 GLC5        0.0000 
     40 CA         19.3470   -7.3150  -11.1680 C.3       9 GLL5        0.0000 
     41 CA         21.6830   -7.5180   -8.0400 C.3       6 GLP5        0.0000 
     42 O          19.9865   -5.8410  -16.8840 O.2       1 ALC1        0.0000 
     43 O          18.8020   -6.1550  -17.6850 O.2       7 ALL1        0.0000 
     44 O          21.1710   -5.5270  -16.0830 O.2       4 ALP1        0.0000 
     45 O          20.7135   -5.0980  -17.3210 O.2       1 ALC1        0.0000 
     46 O          20.2560   -4.6690  -18.5590 O.2       7 ALL1        0.0000 
     47 CA         19.2635   -4.2670  -22.4340 C.3       3 GLC5        0.0000 
     48 CA         19.8090   -3.0610  -20.6990 C.3       9 GLL5        0.0000 
     49 CA         18.7180   -5.4730  -24.1690 C.3       6 GLP5        0.0000 
     50 CA         17.8695   -3.2795  -21.1825 C.3       3 GLC5        0.0000 
     51 CA         15.9300   -3.4980  -21.6660 C.3       6 GLP5        0.0000 
     52 CA         22.4570   -1.0768  -22.2135 C.3       3 GLC5        0.0000 
     53 CA         21.0930   -2.0950  -21.2460 C.3       9 GLL5        0.0000 
     54 CA         23.3010    0.0720  -23.5850 C.3       6 GLP5        0.0000 
     55 CA         19.7962   -9.2777  -14.0675 C.3       3 GLC5        0.0000 
     56 CA         17.9260   -8.5460  -14.4830 C.3       9 GLL5        0.0000 
     57 CA         21.4090  -10.0190  -14.2990 C.3       6 GLP5        0.0000 
     58 CA         17.4497  -10.2758  -14.2380 C.3       3 GLC5        0.0000 
     59 CA         16.7160  -12.0150  -14.6400 C.3       6 GLP5        0.0000 
     60 CA         16.4070   -5.7120  -15.6885 C.3       3 GLC5        0.0000 
     61 CA         17.7420   -7.3660  -15.1960 C.3       9 GLL5        0.0000 
     62 CA         18.5448   -7.8705  -19.1860 C.3       3 GLC5        0.0000 
     63 CA         17.6710   -6.8930  -17.5670 C.3       9 GLL5        0.0000 
     64 CA         19.8320   -8.6650  -20.3100 C.3       6 GLP5        0.0000 
     65 CA         16.0843   -5.8700  -17.2735 C.3       3 GLC5        0.0000 
     66 CA         20.4528   -7.9398  -13.0143 C.3       3 GLC5        0.0000 
     67 CA         18.7760   -7.3200  -12.5950 C.3       9 GLL5        0.0000 
     68 CA         21.8440   -8.5620  -14.1470 C.3       6 GLP5        0.0000 
     69 CA         21.5265   -4.0966  -21.9008 C.3       3 GLC5        0.0000 
     70 CA         22.3420   -5.5500  -23.0310 C.3       6 GLP5        0.0000 
     71 CA         19.7952   -7.2568  -14.9881 C.3       3 GLC5        0.0000 
     72 CA         18.0640   -6.1540  -14.5880 C.3       9 GLL5        0.0000 
     73 CA         21.5570   -7.7590  -15.4080 C.3       6 GLP5        0.0000 
@<TRIPOS>BOND
@<TRIPOS>SUBSTRUCTURE
     1 ALC1       42 GROUP        1 X    ALC  0     ROOT ALC X 1
     2 SEC2       20 GROUP        1 X    SEC  0     **** SEC X 2
     3 GLC5        1 GROUP        1 X    GLC  0     **** GLC X 6
     4 ALP1       44 GROUP        1 Y    ALP  0     ROOT ALP Y 8
     5 SEP2       22 GROUP        1 Y    SEP  0     **** SEP Y 9
     6 GLP5        3 GROUP        1 Y    GLP  0     **** GLP Y 13
     7 ALL1       43 GROUP        1 Z    ALL  0     ROOT ALL Z 15
     8 SEL2       21 GROUP        1 Z    SEL  0     **** SEL Z 16
     9 GLL5        2 GROUP        1 Z    GLL  0     **** GLL Z 20
@<TRIPOS>SET

