#    Name: 3lff_Z83_1_ligand
#    Modification time : Mon Mar 24 21:36:02 2014

@<TRIPOS>MOLECULE
3lff_Z83_1_ligand
   48    50     1     0     0
SMALL
NO_CHARGES


@<TRIPOS>ATOM
      1 CAA        15.1630   -9.9340  -19.3630 C.3       1 Z83362      0.0000 
      2 CAB        13.7150   -9.1290  -17.4930 C.3       1 Z83362      0.0000 
      3 CAC        13.9780   -7.7380  -19.5660 C.3       1 Z83362      0.0000 
      4 OAD        18.2510   -6.0560   -9.4820 O.co2     1 Z83362      0.0000 
      5 OAE        18.2210   -4.8930  -19.4780 O.2       1 Z83362      0.0000 
      6 OAF        17.3430   -7.9960  -10.0820 O.co2     1 Z83362      0.0000 
      7 CAG        22.1330   -2.3560  -20.4380 C.2       1 Z83362      0.0000 
      8 CAH        21.0930   -2.0950  -21.2460 C.2       1 Z83362      0.0000 
      9 CAI        18.5860   -6.1320  -13.2930 C.ar      1 Z83362      0.0000 
     10 CAJ        18.4410   -8.5270  -13.1890 C.ar      1 Z83362      0.0000 
     11 CAK        18.0640   -6.1540  -14.5880 C.ar      1 Z83362      0.0000 
     12 CAL        17.9260   -8.5460  -14.4830 C.ar      1 Z83362      0.0000 
     13 CAM        16.8440   -7.2590  -18.5570 C.2       1 Z83362      0.0000 
     14 CAN        19.3470   -7.3150  -11.1680 C.3       1 Z83362      0.0000 
     15 NAO        21.9190   -3.2580  -19.4560 N.2       1 Z83362      0.0000 
     16 NAP        16.1870   -8.0910  -16.6530 N.2       1 Z83362      0.0000 
     17 NAQ        18.8020   -6.1550  -17.6850 N.am      1 Z83362      0.0000 
     18 NAR        20.2560   -4.6690  -18.5590 N.am      1 Z83362      0.0000 
     19 SAS        19.8090   -3.0610  -20.6990 S.3       1 Z83362      0.0000 
     20 CAT        18.2150   -7.1020  -10.1600 C.2       1 Z83362      0.0000 
     21 CAU        19.0470   -5.2380  -18.6300 C.2       1 Z83362      0.0000 
     22 CAV        18.7760   -7.3200  -12.5950 C.ar      1 Z83362      0.0000 
     23 CAW        17.7420   -7.3660  -15.1960 C.ar      1 Z83362      0.0000 
     24 CAX        15.9080   -8.0040  -17.9530 C.2       1 Z83362      0.0000 
     25 CAY        17.6710   -6.8930  -17.5670 C.2       1 Z83362      0.0000 
     26 CAZ        20.6760   -3.7500  -19.4270 C.2       1 Z83362      0.0000 
     27 NBA        17.2210   -7.4440  -16.4320 N.pl3     1 Z83362      0.0000 
     28 CBB        14.6850   -8.6910  -18.5990 C.3       1 Z83362      0.0000 
     29 H          23.0365   -1.9002  -20.5561 H         1 Z83362      0.0000 
     30 H          20.9083   -1.5752  -21.9571 H         1 Z83362      0.0000 
     31 H          18.8300   -5.2333  -12.8561 H         1 Z83362      0.0000 
     32 H          18.5715   -9.4092  -12.6771 H         1 Z83362      0.0000 
     33 H          17.9169   -5.2706  -15.0947 H         1 Z83362      0.0000 
     34 H          17.6773   -9.4503  -14.9189 H         1 Z83362      0.0000 
     35 H          16.9073   -7.0406  -19.4737 H         1 Z83362      0.0000 
     36 H          19.8285   -8.2651  -10.9740 H         1 Z83362      0.0000 
     37 H          20.0676   -6.5123  -11.0758 H         1 Z83362      0.0000 
     38 H          19.5740   -6.3273  -16.9446 H         1 Z83362      0.0000 
     39 H          20.9108   -4.9663  -17.7712 H         1 Z83362      0.0000 
     40 H          15.7984   -9.6967  -20.0978 H         1 Z83362      0.0000 
     41 H          15.6361  -10.5794  -18.7633 H         1 Z83362      0.0000 
     42 H          14.4013  -10.4279  -19.7823 H         1 Z83362      0.0000 
     43 H          14.1483   -9.7564  -16.8460 H         1 Z83362      0.0000 
     44 H          13.3779   -8.3498  -16.9646 H         1 Z83362      0.0000 
     45 H          12.9147   -9.5988  -17.8655 H         1 Z83362      0.0000 
     46 H          14.5831   -7.4430  -20.3055 H         1 Z83362      0.0000 
     47 H          13.1809   -8.1655  -19.9924 H         1 Z83362      0.0000 
     48 H          13.6555   -6.9119  -19.1039 H         1 Z83362      0.0000 
@<TRIPOS>BOND
     1   28    1 1    
     2   40    1 1    
     3   41    1 1    
     4   42    1 1    
     5   28    2 1    
     6   43    2 1    
     7   44    2 1    
     8   45    2 1    
     9   28    3 1    
    10   46    3 1    
    11   47    3 1    
    12   48    3 1    
    13   20    4 ar   
    14   21    5 2    
    15   20    6 ar   
    16    8    7 2    
    17   15    7 1    
    18   29    7 1    
    19   19    8 1    
    20   30    8 1    
    21   11    9 ar   
    22   22    9 ar   
    23   31    9 1    
    24   12   10 ar   
    25   22   10 ar   
    26   32   10 1    
    27   23   11 ar   
    28   33   11 1    
    29   23   12 ar   
    30   34   12 1    
    31   24   13 1    
    32   25   13 2    
    33   35   13 1    
    34   20   14 1    
    35   22   14 1    
    36   36   14 1    
    37   37   14 1    
    38   26   15 2    
    39   24   16 2    
    40   27   16 1    
    41   21   17 am   
    42   25   17 1    
    43   38   17 1    
    44   21   18 am   
    45   26   18 1    
    46   39   18 1    
    47   26   19 1    
    48   27   23 1    
    49   28   24 1    
    50   27   25 1    
@<TRIPOS>SUBSTRUCTURE
     1 Z83362      1 GROUP   
@<TRIPOS>SET

