#    Name: 4gg7_0J8_1_INTS_M
#    Modification time : Mon Mar 24 22:10:57 2014

@<TRIPOS>MOLECULE
4gg7_0J8_1_INTS_M
   68     0     6     0     0
SMALL
NO_CHARGES


@<TRIPOS>ATOM
      1 CA          0.7380  -17.1705   14.0595 C.3       2 GLC5        0.0000 
      2 CA         -1.1340  -17.5870   14.6260 C.3       6 GLL5        0.0000 
      3 CA          2.6100  -16.7540   13.4930 C.3       4 GLP5        0.0000 
      4 CA         -1.2615  -19.3955   15.4650 C.3       2 GLC5        0.0000 
      5 CA         -1.3890  -21.2040   16.3040 C.3       4 GLP5        0.0000 
      6 CA         -0.7245  -14.3275   14.0210 C.3       2 GLC5        0.0000 
      7 CA         -2.1830  -15.4700   15.2310 C.3       6 GLL5        0.0000 
      8 CA          0.7340  -13.1850   12.8110 C.3       4 GLP5        0.0000 
      9 CA         -3.2850  -17.0280   10.6750 C.3       2 GLC5        0.0000 
     10 CA         -4.1340  -18.5970   11.8290 C.3       6 GLL5        0.0000 
     11 CA         -2.4360  -15.4590    9.5210 C.3       4 GLP5        0.0000 
     12 CA         -1.6965  -20.1425   14.6690 C.3       2 GLC5        0.0000 
     13 CA         -2.0040  -19.0810   13.0340 C.3       6 GLL5        0.0000 
     14 N          -0.3685  -20.0975   14.2475 N.am      1 SEC2        0.0000 
     15 N          -1.0510  -18.7590   13.9370 N.am      5 SEL2        0.0000 
     16 N           0.3140  -21.4360   14.5580 N.am      3 SEP2        0.0000 
     17 CA         -1.7800  -17.2140   16.7220 C.3       2 GLC5        0.0000 
     18 CA         -0.2070  -16.1660   16.2400 C.3       6 GLL5        0.0000 
     19 CA         -3.3530  -18.2620   17.2040 C.3       4 GLP5        0.0000 
     20 CA          2.0320  -17.8715   19.1200 C.3       2 GLC5        0.0000 
     21 CA          1.6070  -16.9680   17.5010 C.3       6 GLL5        0.0000 
     22 CA          2.4570  -18.7750   20.7390 C.3       4 GLP5        0.0000 
     23 CA          3.3885  -16.6860   17.4910 C.3       2 GLC5        0.0000 
     24 CA          5.1700  -16.4040   17.4810 C.3       4 GLP5        0.0000 
     25 CA          0.5995  -18.8485   17.4280 C.3       2 GLC5        0.0000 
     26 CA         -0.4080  -20.7290   17.3550 C.3       4 GLP5        0.0000 
     27 CA          1.1935  -14.0585   14.7450 C.3       2 GLC5        0.0000 
     28 CA          1.6530  -14.9320   16.6790 C.3       6 GLL5        0.0000 
     29 CA         -3.4830  -12.4975   13.9055 C.3       2 GLC5        0.0000 
     30 CA         -2.9850  -13.1760   15.7540 C.3       6 GLL5        0.0000 
     31 CA         -3.9810  -11.8190   12.0570 C.3       4 GLP5        0.0000 
     32 CA         -1.4355  -12.1390   14.8975 C.3       2 GLC5        0.0000 
     33 CA          0.1140  -11.1020   14.0410 C.3       4 GLP5        0.0000 
     34 CA         -2.7630  -11.4400   16.5615 C.3       2 GLC5        0.0000 
     35 CA         -2.5410   -9.7040   17.3690 C.3       4 GLP5        0.0000 
     36 CA         -6.7295  -15.5200   18.5105 C.3       2 GLC5        0.0000 
     37 CA         -5.6600  -13.6150   18.4650 C.3       6 GLL5        0.0000 
     38 CA         -7.7990  -17.4250   18.5560 C.3       4 GLP5        0.0000 
     39 CA         -5.6380  -14.4235   21.5890 C.3       2 GLC5        0.0000 
     40 CA         -4.8650  -13.7030   19.6110 C.3       6 GLL5        0.0000 
     41 CA         -6.4110  -15.1440   23.5670 C.3       4 GLP5        0.0000 
     42 N          -1.3680  -13.5245   22.2980 N.am      1 SEC2        0.0000 
     43 N          -1.4380  -13.2260   20.7610 N.am      5 SEL2        0.0000 
     44 N          -1.2980  -13.8230   23.8350 N.am      3 SEP2        0.0000 
     45 CA         -1.0337  -16.6810   12.6975 C.3       2 GLC5        0.0000 
     46 CA         -2.1830  -16.6670   14.4580 C.3       6 GLL5        0.0000 
     47 CA         -0.4090  -16.2350   10.8530 C.3       4 GLP5        0.0000 
     48 CA         -2.6369  -17.2803   16.0452 C.3       2 GLC5        0.0000 
     49 CA         -5.1103  -19.7238   13.3610 C.3       2 GLC5        0.0000 
     50 CA         -5.8970  -20.1980   15.0360 C.3       4 GLP5        0.0000 
     51 CA         -4.5103  -18.8990   14.0998 C.3       2 GLC5        0.0000 
     52 CA         -3.0670  -18.2130   12.8070 C.3       6 GLL5        0.0000 
     53 CA         -1.4864  -17.2877   11.9759 C.3       2 GLC5        0.0000 
     54 CA         -2.9584  -18.3012   15.1514 C.3       2 GLC5        0.0000 
     55 CA          1.4355  -15.9985   19.5607 C.3       2 GLC5        0.0000 
     56 CA          0.9130  -15.8720   17.2330 C.3       6 GLL5        0.0000 
     57 CA          2.1990  -16.3440   21.3140 C.3       4 GLP5        0.0000 
     58 CA          1.9632  -16.2334   15.1959 C.3       2 GLC5        0.0000 
     59 CA          2.6465  -14.7020   17.7095 C.3       2 GLC5        0.0000 
     60 CA          4.4360  -13.9860   17.7500 C.3       4 GLP5        0.0000 
     61 CA         -5.3072  -11.6758   17.6472 C.3       2 GLC5        0.0000 
     62 CA         -3.6420  -13.3290   17.1130 C.3       6 GLL5        0.0000 
     63 CA         -6.2650   -9.9670   18.1330 C.3       4 GLP5        0.0000 
     64 CA         -3.4877  -15.5875   18.8362 C.3       2 GLC5        0.0000 
     65 CA         -2.8400  -13.4220   18.2530 C.3       6 GLL5        0.0000 
     66 CA         -3.8310  -17.6610   18.7960 C.3       4 GLP5        0.0000 
     67 CA         -4.5467  -15.6600   18.9170 C.3       2 GLC5        0.0000 
     68 CA         -5.7637  -11.8130   18.5855 C.3       2 GLC5        0.0000 
@<TRIPOS>BOND
@<TRIPOS>SUBSTRUCTURE
     1 SEC2       14 GROUP        1 X    SEC  0     ROOT SEC X 2
     2 GLC5        1 GROUP        1 X    GLC  0     **** GLC X 6
     3 SEP2       16 GROUP        1 Y    SEP  0     ROOT SEP Y 9
     4 GLP5        3 GROUP        1 Y    GLP  0     **** GLP Y 13
     5 SEL2       15 GROUP        1 Z    SEL  0     ROOT SEL Z 16
     6 GLL5        2 GROUP        1 Z    GLL  0     **** GLL Z 20
@<TRIPOS>SET

