#    Name: 4gg7_0J8_1_ligand
#    Modification time : Mon Mar 24 22:10:57 2014

@<TRIPOS>MOLECULE
4gg7_0J8_1_ligand
   56    60     1     0     0
SMALL
NO_CHARGES


@<TRIPOS>ATOM
      1 C4         -1.1340  -17.5870   14.6260 C.ar      1 0J81401     0.0000 
      2 C5         -2.1830  -16.6670   14.4580 C.ar      1 0J81401     0.0000 
      3 C6         -2.1830  -15.4700   15.2310 C.ar      1 0J81401     0.0000 
      4 N1         -1.1740  -15.2470   16.1050 N.ar      1 0J81401     0.0000 
      5 N3         -0.1550  -17.3070   15.5320 N.ar      1 0J81401     0.0000 
      6 CAP        -7.6130  -21.1320   10.6350 C.3       1 0J81401     0.0000 
      7 CAN        -8.3850  -22.3020    9.9930 C.3       1 0J81401     0.0000 
      8 NAW        -8.3440  -22.2710    8.5280 N.4       1 0J81401     0.0000 
      9 CAO        -7.4650  -21.2990    7.8570 C.3       1 0J81401     0.0000 
     10 CAQ        -6.1630  -20.9220    8.5480 C.3       1 0J81401     0.0000 
     11 CBG        -6.2200  -21.0080   10.0590 C.3       1 0J81401     0.0000 
     12 NBI        -5.5180  -19.8360   10.6480 N.pl3     1 0J81401     0.0000 
     13 CAM        -4.5130  -19.9020   11.5430 C.2       1 0J81401     0.0000 
     14 NAT        -5.8070  -18.5030   10.3730 N.2       1 0J81401     0.0000 
     15 CAJ        -4.9580  -17.7270   11.1050 C.2       1 0J81401     0.0000 
     16 CBA        -4.1340  -18.5970   11.8290 C.2       1 0J81401     0.0000 
     17 CAZ        -3.0670  -18.2130   12.8070 C.ar      1 0J81401     0.0000 
     18 CAL        -3.1800  -16.9870   13.5200 C.ar      1 0J81401     0.0000 
     19 CAI        -2.0040  -19.0810   13.0340 C.ar      1 0J81401     0.0000 
     20 NAS        -1.0510  -18.7590   13.9370 N.ar      1 0J81401     0.0000 
     21 C2         -0.2070  -16.1660   16.2400 C.ar      1 0J81401     0.0000 
     22 CBJ         0.9130  -15.8720   17.2330 C.3       1 0J81401     0.0000 
     23 FAD         1.6070  -16.9680   17.5010 F         1 0J81401     0.0000 
     24 FAE         1.6530  -14.9320   16.6790 F         1 0J81401     0.0000 
     25 FAC         0.4310  -15.4340   18.3820 F         1 0J81401     0.0000 
     26 NAX        -3.2080  -14.4530   15.1020 N.pl3     1 0J81401     0.0000 
     27 CAR        -2.9850  -13.1760   15.7540 C.3       1 0J81401     0.0000 
     28 CAY        -3.6420  -13.3290   17.1130 C.ar      1 0J81401     0.0000 
     29 CAK        -2.8400  -13.4220   18.2530 C.ar      1 0J81401     0.0000 
     30 CAG        -5.0570  -13.4400   17.2100 C.ar      1 0J81401     0.0000 
     31 CAF        -5.6600  -13.6150   18.4650 C.ar      1 0J81401     0.0000 
     32 CAH        -4.8650  -13.7030   19.6110 C.ar      1 0J81401     0.0000 
     33 CBB        -3.4490  -13.6060   19.5000 C.ar      1 0J81401     0.0000 
     34 NBH        -2.6680  -13.7020   20.6950 N.pl3     1 0J81401     0.0000 
     35 OAB        -3.2250  -14.2780   21.7150 O.2       1 0J81401     0.0000 
     36 OAA        -1.4380  -13.2260   20.7610 O.2       1 0J81401     0.0000 
     37 H          -7.5540  -21.3022   11.7114 H         1 0J81401     0.0000 
     38 H          -8.1690  -20.2094   10.4594 H         1 0J81401     0.0000 
     39 H          -9.4253  -22.2570   10.3556 H         1 0J81401     0.0000 
     40 H          -7.9515  -23.2406   10.3760 H         1 0J81401     0.0000 
     41 H          -8.0356  -20.3472    7.6613 H         1 0J81401     0.0000 
     42 H          -7.2082  -21.6725    6.8253 H         1 0J81401     0.0000 
     43 H          -5.8880  -19.8932    8.2543 H         1 0J81401     0.0000 
     44 H          -5.3585  -21.5825    8.1781 H         1 0J81401     0.0000 
     45 H          -5.6496  -21.9121   10.3604 H         1 0J81401     0.0000 
     46 H          -4.1209  -20.6806   11.9213 H         1 0J81401     0.0000 
     47 H          -4.9164  -16.7850   11.1333 H         1 0J81401     0.0000 
     48 H          -3.9585  -16.3686   13.3511 H         1 0J81401     0.0000 
     49 H          -1.9587  -19.9678   12.5034 H         1 0J81401     0.0000 
     50 H          -4.0378  -14.6244   14.5833 H         1 0J81401     0.0000 
     51 H          -3.4638  -12.3746   15.2258 H         1 0J81401     0.0000 
     52 H          -1.9394  -12.9822   15.8944 H         1 0J81401     0.0000 
     53 H          -1.8256  -13.3570   18.1793 H         1 0J81401     0.0000 
     54 H          -5.6246  -13.3914   16.3640 H         1 0J81401     0.0000 
     55 H          -6.6790  -13.6777   18.5381 H         1 0J81401     0.0000 
     56 H          -5.2873  -13.8364   20.5304 H         1 0J81401     0.0000 
@<TRIPOS>BOND
     1    2    1 ar   
     2    5    1 ar   
     3   20    1 ar   
     4    3    2 ar   
     5   18    2 ar   
     6    4    3 ar   
     7   26    3 1    
     8   21    4 ar   
     9   21    5 ar   
    10    7    6 1    
    11   11    6 1    
    12   37    6 1    
    13   38    6 1    
    14    8    7 1    
    15   39    7 1    
    16   40    7 1    
    17    9    8 1    
    18   10    9 1    
    19   41    9 1    
    20   42    9 1    
    21   11   10 1    
    22   43   10 1    
    23   44   10 1    
    24   12   11 1    
    25   45   11 1    
    26   13   12 1    
    27   14   12 1    
    28   16   13 2    
    29   46   13 1    
    30   15   14 2    
    31   16   15 1    
    32   47   15 1    
    33   17   16 1    
    34   18   17 ar   
    35   19   17 ar   
    36   48   18 1    
    37   20   19 ar   
    38   49   19 1    
    39   22   21 1    
    40   23   22 1    
    41   24   22 1    
    42   25   22 1    
    43   27   26 1    
    44   50   26 1    
    45   28   27 1    
    46   51   27 1    
    47   52   27 1    
    48   29   28 ar   
    49   30   28 ar   
    50   33   29 ar   
    51   53   29 1    
    52   31   30 ar   
    53   54   30 1    
    54   32   31 ar   
    55   55   31 1    
    56   33   32 ar   
    57   56   32 1    
    58   34   33 1    
    59   35   34 2    
    60   36   34 2    
@<TRIPOS>SUBSTRUCTURE
     1 0J81401     1 GROUP   
@<TRIPOS>SET

