#    Name: 1m7b_GTP_1_INTS_M
#    Modification time : Tue Mar 25 11:26:29 2014

@<TRIPOS>MOLECULE
1m7b_GTP_1_INTS_M
   69     0    15     0     0
SMALL
NO_CHARGES


@<TRIPOS>ATOM
      1 N          28.1790   32.4710    9.6440 N.am      2 SEC2        0.0000 
      2 N          26.9030   32.4550    9.7550 N.am     12 SEL2        0.0000 
      3 N          29.4550   32.4870    9.5330 N.am      7 SEP2        0.0000 
      4 Zn         25.4245   29.8845    7.9770 Zn        4 ZIC7        0.0000 
      5 Zn         25.6170   30.9340    8.2060 Zn       14 ZIL7        0.0000 
      6 Zn         25.2320   28.8350    7.7480 Zn        9 ZIP7        0.0000 
      7 N          25.8530   31.4285    6.8620 N.am      2 SEC2        0.0000 
      8 N          25.6170   30.9340    8.2060 N.am     12 SEL2        0.0000 
      9 N          26.0890   31.9230    5.5180 N.am      7 SEP2        0.0000 
     10 NZ         23.8065   31.1355   11.0655 N.4       3 LYC4        0.0000 
     11 NZ         24.6230   31.8620   10.2660 N.4      13 LYL4        0.0000 
     12 NZ         22.9900   30.4090   11.8650 N.4       8 LYP4        0.0000 
     13 N          23.8065   31.1355   11.0655 N.am      2 SEC2        0.0000 
     14 N          24.6230   31.8620   10.2660 N.am     12 SEL2        0.0000 
     15 N          22.9900   30.4090   11.8650 N.am      7 SEP2        0.0000 
     16 N          23.5335   32.9465   10.2630 N.am      2 SEC2        0.0000 
     17 N          22.4440   34.0310   10.2600 N.am      7 SEP2        0.0000 
     18 N          26.8905   30.5855   11.8605 N.am      2 SEC2        0.0000 
     19 N          26.5120   30.0530   10.5720 N.am     12 SEL2        0.0000 
     20 N          27.2690   31.1180   13.1490 N.am      7 SEP2        0.0000 
     21 NZ         23.9890   29.5010   11.9730 N.4       3 LYC4        0.0000 
     22 NZ         24.9880   28.5930   12.0810 N.4      13 LYL4        0.0000 
     23 N          25.4465   27.5350   13.0860 N.am      2 SEC2        0.0000 
     24 N          24.9880   28.5930   12.0810 N.am     12 SEL2        0.0000 
     25 N          25.9050   26.4770   14.0910 N.am      7 SEP2        0.0000 
     26 N          24.4680   27.2050   12.1200 N.am      2 SEC2        0.0000 
     27 N          23.9480   25.8170   12.1590 N.am      7 SEP2        0.0000 
     28 N          23.9890   29.5010   11.9730 N.am      2 SEC2        0.0000 
     29 Zn         25.2825   28.4065    8.7215 Zn        4 ZIC7        0.0000 
     30 Zn         25.3330   27.9780    9.6950 Zn       14 ZIL7        0.0000 
     31 N          24.7085   26.6775    9.4870 N.am      2 SEC2        0.0000 
     32 N          25.3330   27.9780    9.6950 N.am     12 SEL2        0.0000 
     33 N          24.0840   25.3770    9.2790 N.am      7 SEP2        0.0000 
     34 N          26.5620   27.0990   12.6725 N.am      2 SEC2        0.0000 
     35 N          27.2190   27.7210   11.2540 N.am     12 SEL2        0.0000 
     36 N          26.4735   24.2005    9.7940 N.am      2 SEC2        0.0000 
     37 N          27.1060   25.2810   10.4530 N.am     12 SEL2        0.0000 
     38 N          25.8410   23.1200    9.1350 N.am      7 SEP2        0.0000 
     39 CA         29.1055   28.6620   12.7560 C.3       5 GLC5        0.0000 
     40 CA         30.0310   27.2700   11.9570 C.3      15 GLL5        0.0000 
     41 CA         28.1800   30.0540   13.5550 C.3      10 GLP5        0.0000 
     42 CA         30.4485   28.2230   10.4415 C.3       5 GLC5        0.0000 
     43 CA         30.8660   29.1760    8.9260 C.3      10 GLP5        0.0000 
     44 CA         32.6380   27.0435    9.9540 C.3       5 GLC5        0.0000 
     45 CA         32.0810   25.7120   11.5760 C.3      15 GLL5        0.0000 
     46 CA         33.1950   28.3750    8.3320 C.3      10 GLP5        0.0000 
     47 CA         30.3290   24.8335   14.9645 C.3       5 GLC5        0.0000 
     48 CA         31.5340   24.2300   13.4350 C.3      15 GLL5        0.0000 
     49 CA         29.1240   25.4370   16.4940 C.3      10 GLP5        0.0000 
     50 CA         28.9245   22.4370   16.2590 C.3       5 GLC5        0.0000 
     51 CA         29.5270   21.5640   14.8660 C.3      15 GLL5        0.0000 
     52 CA         28.3220   23.3100   17.6520 C.3      10 GLP5        0.0000 
     53 CA         30.3335   19.5865   14.7940 C.3       5 GLC5        0.0000 
     54 CA         31.1400   17.6090   14.7220 C.3      10 GLP5        0.0000 
     55 N          28.5920   18.4645   15.0205 N.am      2 SEC2        0.0000 
     56 N          28.3720   19.7730   15.9400 N.am     12 SEL2        0.0000 
     57 N          28.8120   17.1560   14.1010 N.am      7 SEP2        0.0000 
     58 O          30.2285   19.5090   17.6490 O.2       1 ALC1        0.0000 
     59 O          30.4590   20.4010   16.6620 O.2      11 ALL1        0.0000 
     60 O          29.9980   18.6170   18.6360 O.2       6 ALP1        0.0000 
     61 O          31.3050   19.5575   17.8490 O.2       1 ALC1        0.0000 
     62 O          32.1510   18.7140   19.0360 O.2       6 ALP1        0.0000 
     63 O          32.3745   19.8565   18.2440 O.2       1 ALC1        0.0000 
     64 O          32.5980   20.9990   17.4520 O.2      11 ALL1        0.0000 
     65 CA         29.9840   23.3825   16.2330 C.3       5 GLC5        0.0000 
     66 CA         30.6260   22.3110   14.8180 C.3      15 GLL5        0.0000 
     67 CA         29.3420   24.4540   17.6480 C.3      10 GLP5        0.0000 
     68 CA         31.4595   22.2253   12.0160 C.3       5 GLC5        0.0000 
     69 CA         31.2510   20.2420   11.4300 C.3      10 GLP5        0.0000 
@<TRIPOS>BOND
@<TRIPOS>SUBSTRUCTURE
     1 ALC1       58 GROUP        1 X    ALC  0     ROOT ALC X 1
     2 SEC2        1 GROUP        1 X    SEC  0     **** SEC X 2
     3 LYC4       10 GROUP        1 X    LYC  0     **** LYC X 4
     4 ZIC7        4 GROUP        1 X    ZIC  0     **** ZIC X 5
     5 GLC5       39 GROUP        1 X    GLC  0     **** GLC X 6
     6 ALP1       60 GROUP        1 Y    ALP  0     ROOT ALP Y 8
     7 SEP2        3 GROUP        1 Y    SEP  0     **** SEP Y 9
     8 LYP4       12 GROUP        1 Y    LYP  0     **** LYP Y 11
     9 ZIP7        6 GROUP        1 Y    ZIP  0     **** ZIP Y 12
    10 GLP5       41 GROUP        1 Y    GLP  0     **** GLP Y 13
    11 ALL1       59 GROUP        1 Z    ALL  0     ROOT ALL Z 15
    12 SEL2        2 GROUP        1 Z    SEL  0     **** SEL Z 16
    13 LYL4       11 GROUP        1 Z    LYL  0     **** LYL Z 18
    14 ZIL7        5 GROUP        1 Z    ZIL  0     **** ZIL Z 19
    15 GLL5       40 GROUP        1 Z    GLL  0     **** GLL Z 20
@<TRIPOS>SET

