#    Name: 1m7b_GTP_1_ligand
#    Modification time : Tue Mar 25 11:26:29 2014

@<TRIPOS>MOLECULE
1m7b_GTP_1_ligand
   44    46     1     0     0
SMALL
NO_CHARGES


@<TRIPOS>ATOM
      1 PG         25.8430   31.3970    9.6120 P.3       1 GTP538      0.0000 
      2 O1G        26.9030   32.4550    9.7550 O.co2     1 GTP538      0.0000 
      3 O2G        25.6170   30.9340    8.2060 O.co2     1 GTP538      0.0000 
      4 O3G        24.6230   31.8620   10.2660 O.co2     1 GTP538      0.0000 
      5 O3B        26.5120   30.0530   10.5720 O.3       1 GTP538      0.0000 
      6 PB         25.9350   28.5240   10.8880 P.3       1 GTP538      0.0000 
      7 O1B        24.9880   28.5930   12.0810 O.co2     1 GTP538      0.0000 
      8 O2B        25.3330   27.9780    9.6950 O.co2     1 GTP538      0.0000 
      9 O3A        27.2190   27.7210   11.2540 O.3       1 GTP538      0.0000 
     10 PA         27.9490   26.4510   10.5690 P.3       1 GTP538      0.0000 
     11 O1A        27.1060   25.2810   10.4530 O.co2     1 GTP538      0.0000 
     12 O2A        28.5540   26.9900    9.2610 O.co2     1 GTP538      0.0000 
     13 O5'        29.1130   26.1110   11.7300 O.3       1 GTP538      0.0000 
     14 C5'        30.0310   27.2700   11.9570 C.3       1 GTP538      0.0000 
     15 C4'        31.2970   26.4720   12.5480 C.3       1 GTP538      0.0000 
     16 O4'        31.0000   25.5460   13.6280 O.3       1 GTP538      0.0000 
     17 C3'        32.0810   25.7120   11.5760 C.3       1 GTP538      0.0000 
     18 O3'        33.4510   26.0330   11.6380 O.3       1 GTP538      0.0000 
     19 C2'        31.8020   24.1870   11.7690 C.3       1 GTP538      0.0000 
     20 O2'        32.7970   23.3950   11.4170 O.3       1 GTP538      0.0000 
     21 C1'        31.5340   24.2300   13.4350 C.3       1 GTP538      0.0000 
     22 N9         30.4710   23.2090   13.7980 N.pl3     1 GTP538      0.0000 
     23 C8         29.2470   23.0890   13.1300 C.2       1 GTP538      0.0000 
     24 N7         28.7240   22.0600   13.8420 N.2       1 GTP538      0.0000 
     25 C5         29.5270   21.5640   14.8660 C.2       1 GTP538      0.0000 
     26 C6         29.2870   20.6100   15.6850 C.2       1 GTP538      0.0000 
     27 O6         28.3720   19.7730   15.9400 O.2       1 GTP538      0.0000 
     28 N1         30.4590   20.4010   16.6620 N.am      1 GTP538      0.0000 
     29 C2         31.4690   21.2060   16.4980 C.2       1 GTP538      0.0000 
     30 N2         32.5980   20.9990   17.4520 N.pl3     1 GTP538      0.0000 
     31 N3         31.7160   22.2090   15.6310 N.2       1 GTP538      0.0000 
     32 C4         30.6260   22.3110   14.8180 C.2       1 GTP538      0.0000 
     33 H          29.6848   27.9001   12.7054 H         1 GTP538      0.0000 
     34 H          30.3303   27.7099   11.0661 H         1 GTP538      0.0000 
     35 H          31.9764   27.2666   12.9700 H         1 GTP538      0.0000 
     36 H          31.6777   25.9492   10.5635 H         1 GTP538      0.0000 
     37 H          30.8199   24.0179   11.3871 H         1 GTP538      0.0000 
     38 H          32.4369   24.0646   13.8747 H         1 GTP538      0.0000 
     39 H          28.9318   23.5642   12.4417 H         1 GTP538      0.0000 
     40 H          30.3397   19.6752   17.3255 H         1 GTP538      0.0000 
     41 H          33.3878   21.6013   17.3364 H         1 GTP538      0.0000 
     42 H          32.4739   20.2746   18.1301 H         1 GTP538      0.0000 
     43 H          33.6466   26.5001   10.7756 H         1 GTP538      0.0000 
     44 H          33.5539   24.0114   11.1999 H         1 GTP538      0.0000 
@<TRIPOS>BOND
     1    2    1 ar   
     2    3    1 ar   
     3    4    1 ar   
     4    5    1 1    
     5    6    5 1    
     6    7    6 ar   
     7    8    6 ar   
     8    9    6 1    
     9   10    9 1    
    10   11   10 ar   
    11   12   10 ar   
    12   13   10 1    
    13   14   13 1    
    14   15   14 1    
    15   33   14 1    
    16   34   14 1    
    17   16   15 1    
    18   17   15 1    
    19   35   15 1    
    20   21   16 1    
    21   18   17 1    
    22   19   17 1    
    23   36   17 1    
    24   43   18 1    
    25   20   19 1    
    26   21   19 1    
    27   37   19 1    
    28   44   20 1    
    29   22   21 1    
    30   38   21 1    
    31   23   22 1    
    32   32   22 1    
    33   24   23 2    
    34   39   23 1    
    35   25   24 1    
    36   26   25 1    
    37   32   25 2    
    38   27   26 2    
    39   28   26 am   
    40   29   28 1    
    41   40   28 1    
    42   30   29 1    
    43   31   29 2    
    44   41   30 1    
    45   42   30 1    
    46   32   31 1    
@<TRIPOS>SUBSTRUCTURE
     1 GTP538      1 GROUP   
@<TRIPOS>SET

