#    Name: 3uoh_0C4_1_INTS_M
#    Modification time : Mon Mar 24 23:08:39 2014

@<TRIPOS>MOLECULE
3uoh_0C4_1_INTS_M
   75     0    12     0     0
SMALL
NO_CHARGES


@<TRIPOS>ATOM
      1 CA          0.5405   19.2725    9.6850 C.3       4 GLC5        0.0000 
      2 CA          2.5530   19.9000    9.1550 C.3      12 GLL5        0.0000 
      3 CA         -1.4720   18.6450   10.2150 C.3       8 GLP5        0.0000 
      4 CA          3.2870   20.4010   10.7005 C.3       4 GLC5        0.0000 
      5 CA          4.0210   20.9020   12.2460 C.3       8 GLP5        0.0000 
      6 CA          1.8145   21.2015    9.9390 C.3       4 GLC5        0.0000 
      7 CA          1.0760   22.5030   10.7230 C.3       8 GLP5        0.0000 
      8 O           8.7350   18.9870   13.4995 O.2       1 ALC1        0.0000 
      9 O           8.5860   18.9810   12.2220 O.2       9 ALL1        0.0000 
     10 O           8.8840   18.9930   14.7770 O.2       5 ALP1        0.0000 
     11 N           8.4925   21.6130   13.1810 N.am      2 SEC2        0.0000 
     12 N           8.0080   21.2310   11.7840 N.am     10 SEL2        0.0000 
     13 N           8.9770   21.9950   14.5780 N.am      6 SEP2        0.0000 
     14 CA          9.8040   18.6295   10.5115 C.3       4 GLC5        0.0000 
     15 CA          8.7220   17.5790   11.9350 C.3      12 GLL5        0.0000 
     16 CA         10.8860   19.6800    9.0880 C.3       8 GLP5        0.0000 
     17 CA          6.0495   17.6520   11.7610 C.3       4 GLC5        0.0000 
     18 CA          7.8260   16.9020   11.1170 C.3      12 GLL5        0.0000 
     19 CA          4.2730   18.4020   12.4050 C.3       8 GLP5        0.0000 
     20 CA          9.3790   19.8115   10.2595 C.3       4 GLC5        0.0000 
     21 CA          7.8720   19.9430   11.4310 C.3      12 GLL5        0.0000 
     22 CA          7.3855   20.4595   13.3995 C.3       4 GLC5        0.0000 
     23 CA          6.8990   20.9760   15.3680 C.3       8 GLP5        0.0000 
     24 CA          6.0725   19.1725   11.9180 C.3       4 GLC5        0.0000 
     25 CA          8.8985   22.9720   12.3980 C.3       4 GLC5        0.0000 
     26 CA          7.3840   22.2010   11.1000 C.3      12 GLL5        0.0000 
     27 CA         10.4130   23.7430   13.6960 C.3       8 GLP5        0.0000 
     28 CA          7.1415   21.5885   13.2340 C.3       4 GLC5        0.0000 
     29 CA          8.0400   17.7025    7.8635 C.3       4 GLC5        0.0000 
     30 CA          5.9260   17.7720    7.8970 C.3      12 GLL5        0.0000 
     31 CA         10.1540   17.6330    7.8300 C.3       8 GLP5        0.0000 
     32 CA          6.0095   14.3395    7.7270 C.3       4 GLC5        0.0000 
     33 CA          5.4070   16.4950    7.7090 C.3      12 GLL5        0.0000 
     34 CA          6.6120   12.1840    7.7450 C.3       8 GLP5        0.0000 
     35 NZ          9.1675   11.5635   12.9200 N.4       3 LYC4        0.0000 
     36 NZ         10.0220   12.7460   11.9650 N.4      11 LYL4        0.0000 
     37 NZ          8.3130   10.3810   13.8750 N.4       7 LYP4        0.0000 
     38 N          11.4750   13.4925   11.4225 N.am      2 SEC2        0.0000 
     39 N          10.0220   12.7460   11.9650 N.am     10 SEL2        0.0000 
     40 N          12.9280   14.2390   10.8800 N.am      6 SEP2        0.0000 
     41 CA          3.2805   19.1055    6.9595 C.3       4 GLC5        0.0000 
     42 CA          3.7550   18.5200    8.5510 C.3      12 GLL5        0.0000 
     43 CA          3.4070   19.0010    5.0660 C.3       8 GLP5        0.0000 
     44 CA          9.0330   16.9277    9.4148 C.3       4 GLC5        0.0000 
     45 CA          7.6155   15.3750   12.8047 C.3       4 GLC5        0.0000 
     46 CA          7.9980   15.5430   10.8820 C.3      12 GLL5        0.0000 
     47 CA          6.6990   15.5480   14.4400 C.3       8 GLP5        0.0000 
     48 CA          8.2838   15.8820   13.4145 C.3       4 GLC5        0.0000 
     49 CA          9.9560   15.5390   12.2690 C.3      12 GLL5        0.0000 
     50 CA         10.8620   16.7572   10.8025 C.3       4 GLC5        0.0000 
     51 CA          9.7810   16.8930   12.5090 C.3      12 GLL5        0.0000 
     52 CA         12.0780   17.4680    9.4190 C.3       8 GLP5        0.0000 
     53 CA          7.4865   16.3942   12.9830 C.3       4 GLC5        0.0000 
     54 CA          7.4825   21.5663    8.0267 C.3       4 GLC5        0.0000 
     55 CA          6.4480   20.4860    9.6530 C.3      12 GLL5        0.0000 
     56 CA          8.4460   21.9740    6.2190 C.3       8 GLP5        0.0000 
     57 CA          8.5930   22.8615    9.9215 C.3       4 GLC5        0.0000 
     58 CA          6.5900   21.8310   10.0160 C.3      12 GLL5        0.0000 
     59 CA         10.1990   23.7070    9.2850 C.3       8 GLP5        0.0000 
     60 CA          5.8230   23.2765   11.1770 C.3       4 GLC5        0.0000 
     61 CA          4.6590   24.5370   11.7960 C.3       8 GLP5        0.0000 
     62 CA          5.4863   21.2909   11.3566 C.3       4 GLC5        0.0000 
     63 CA          4.4603   18.6427    6.5880 C.3       4 GLC5        0.0000 
     64 CA          5.1010   18.7970    8.3230 C.3      12 GLL5        0.0000 
     65 CA          6.5898   16.5772    6.2165 C.3       4 GLC5        0.0000 
     66 CA          7.5130   16.0210    4.6300 C.3       8 GLP5        0.0000 
     67 CA          3.9900   15.7130    9.5815 C.3       4 GLC5        0.0000 
     68 CA          3.2460   15.0600   11.3360 C.3       8 GLP5        0.0000 
     69 CA          4.0315   15.1125    6.3050 C.3       4 GLC5        0.0000 
     70 CA          4.0610   16.2370    7.9450 C.3      12 GLL5        0.0000 
     71 CA          3.3290   13.8590    4.7830 C.3       8 GLP5        0.0000 
     72 CA          3.3687   16.4737    9.8983 C.3       4 GLC5        0.0000 
     73 CA          3.2280   17.2550    8.3700 C.3      12 GLL5        0.0000 
     74 CA          4.0505   18.1794   10.4042 C.3       4 GLC5        0.0000 
     75 CA          3.6940   17.9058    6.5823 C.3       4 GLC5        0.0000 
@<TRIPOS>BOND
@<TRIPOS>SUBSTRUCTURE
     1 ALC1        8 GROUP        1 X    ALC  0     ROOT ALC X 1
     2 SEC2       11 GROUP        1 X    SEC  0     **** SEC X 2
     3 LYC4       35 GROUP        1 X    LYC  0     **** LYC X 4
     4 GLC5        1 GROUP        1 X    GLC  0     **** GLC X 6
     5 ALP1       10 GROUP        1 Y    ALP  0     ROOT ALP Y 8
     6 SEP2       13 GROUP        1 Y    SEP  0     **** SEP Y 9
     7 LYP4       37 GROUP        1 Y    LYP  0     **** LYP Y 11
     8 GLP5        3 GROUP        1 Y    GLP  0     **** GLP Y 13
     9 ALL1        9 GROUP        1 Z    ALL  0     ROOT ALL Z 15
    10 SEL2       12 GROUP        1 Z    SEL  0     **** SEL Z 16
    11 LYL4       36 GROUP        1 Z    LYL  0     **** LYL Z 18
    12 GLL5        2 GROUP        1 Z    GLL  0     **** GLL Z 20
@<TRIPOS>SET

