#    Name: 3uoh_0C4_1_ligand
#    Modification time : Mon Mar 24 23:08:39 2014

@<TRIPOS>MOLECULE
3uoh_0C4_1_ligand
   36    38     1     0     0
SMALL
NO_CHARGES


@<TRIPOS>ATOM
      1 BR2         2.5530   19.9000    9.1550 Br        1 0C42        0.0000 
      2 N01         8.5860   18.9810   12.2220 N.pl3     1 0C42        0.0000 
      3 N02         7.1090   19.5650   10.3900 N.ar      1 0C42        0.0000 
      4 N03         8.0080   21.2310   11.7840 N.ar      1 0C42        0.0000 
      5 N04         5.6190   20.1260    8.5270 N.pl3     1 0C42        0.0000 
      6 C05         7.9980   15.5430   10.8820 C.ar      1 0C42        0.0000 
      7 C06         9.0660   14.8610   11.4570 C.ar      1 0C42        0.0000 
      8 C07         9.9560   15.5390   12.2690 C.ar      1 0C42        0.0000 
      9 C08         9.7810   16.8930   12.5090 C.ar      1 0C42        0.0000 
     10 C09         8.7220   17.5790   11.9350 C.ar      1 0C42        0.0000 
     11 C10         7.8260   16.9020   11.1170 C.ar      1 0C42        0.0000 
     12 C11         9.2700   13.4080   11.2040 C.2       1 0C42        0.0000 
     13 C12         7.8720   19.9430   11.4310 C.ar      1 0C42        0.0000 
     14 C13         6.4480   20.4860    9.6530 C.ar      1 0C42        0.0000 
     15 C14         6.5900   21.8310   10.0160 C.ar      1 0C42        0.0000 
     16 C15         7.3840   22.2010   11.1000 C.ar      1 0C42        0.0000 
     17 C16         5.1010   18.7970    8.3230 C.ar      1 0C42        0.0000 
     18 C17         5.9260   17.7720    7.8970 C.ar      1 0C42        0.0000 
     19 C18         5.4070   16.4950    7.7090 C.ar      1 0C42        0.0000 
     20 C19         4.0610   16.2370    7.9450 C.ar      1 0C42        0.0000 
     21 C20         3.2280   17.2550    8.3700 C.ar      1 0C42        0.0000 
     22 C21         3.7550   18.5200    8.5510 C.ar      1 0C42        0.0000 
     23 O25        10.0220   12.7460   11.9650 O.co2     1 0C42        0.0000 
     24 O26         8.7050   12.8480   10.2250 O.co2     1 0C42        0.0000 
     25 H           9.0574   19.3372   13.1002 H         1 0C42        0.0000 
     26 H           5.3865   20.8579    7.8345 H         1 0C42        0.0000 
     27 H           7.3323   15.0377   10.2796 H         1 0C42        0.0000 
     28 H          10.7493   15.0398   12.6963 H         1 0C42        0.0000 
     29 H          10.4455   17.3952   13.1209 H         1 0C42        0.0000 
     30 H           7.0396   17.4036   10.6876 H         1 0C42        0.0000 
     31 H           6.0980   22.5572    9.4707 H         1 0C42        0.0000 
     32 H           7.4722   23.1897   11.3465 H         1 0C42        0.0000 
     33 H           6.9237   17.9501    7.7182 H         1 0C42        0.0000 
     34 H           6.0263   15.7328    7.3917 H         1 0C42        0.0000 
     35 H           3.6891   15.2881    7.8023 H         1 0C42        0.0000 
     36 H           2.2359   17.0748    8.5480 H         1 0C42        0.0000 
@<TRIPOS>BOND
     1   22    1 1    
     2   10    2 1    
     3   13    2 1    
     4   25    2 1    
     5   13    3 ar   
     6   14    3 ar   
     7   13    4 ar   
     8   16    4 ar   
     9   14    5 1    
    10   17    5 1    
    11   26    5 1    
    12    7    6 ar   
    13   11    6 ar   
    14   27    6 1    
    15    8    7 ar   
    16   12    7 1    
    17    9    8 ar   
    18   28    8 1    
    19   10    9 ar   
    20   29    9 1    
    21   11   10 ar   
    22   30   11 1    
    23   23   12 ar   
    24   24   12 ar   
    25   15   14 ar   
    26   16   15 ar   
    27   31   15 1    
    28   32   16 1    
    29   18   17 ar   
    30   22   17 ar   
    31   19   18 ar   
    32   33   18 1    
    33   20   19 ar   
    34   34   19 1    
    35   21   20 ar   
    36   35   20 1    
    37   22   21 ar   
    38   36   21 1    
@<TRIPOS>SUBSTRUCTURE
     1 0C42        1 GROUP   
@<TRIPOS>SET

