#    Name: 2dw0_GM6_2_INTS_M
#    Modification time : Mon Apr  7 17:30:26 2014

@<TRIPOS>MOLECULE
2dw0_GM6_2_INTS_M
   65     0    12     0     0
SMALL
NO_CHARGES


@<TRIPOS>ATOM
      1 Zn         -2.3600   36.9975    7.4395 Zn        3 ZIC7        0.0000 
      2 Zn         -1.9340   37.8470    6.7960 Zn       11 ZIL7        0.0000 
      3 Zn         -2.7860   36.1480    8.0830 Zn        7 ZIP7        0.0000 
      4 O          -1.0180   38.7445    7.0775 O.2       1 ALC1        0.0000 
      5 O          -1.9340   37.8470    6.7960 O.2       9 ALL1        0.0000 
      6 O          -0.1020   39.6420    7.3590 O.2       5 ALP1        0.0000 
      7 O          -1.8525   39.4120    7.3190 O.2       1 ALC1        0.0000 
      8 O          -1.7710   40.9770    7.8420 O.2       5 ALP1        0.0000 
      9 O          -3.1865   39.7350    5.5505 O.2       1 ALC1        0.0000 
     10 O          -3.0810   38.4980    6.4700 O.2       9 ALL1        0.0000 
     11 O          -3.2920   40.9720    4.6310 O.2       5 ALP1        0.0000 
     12 Zn         -3.5790   36.4300    7.4915 Zn        3 ZIC7        0.0000 
     13 Zn         -4.3720   36.7120    6.9000 Zn       11 ZIL7        0.0000 
     14 CA         -6.2950   39.1880    4.4765 C.3       4 GLC5        0.0000 
     15 CA         -5.4640   38.7010    6.1660 C.3      12 GLL5        0.0000 
     16 CA         -7.1260   39.6750    2.7870 C.3       8 GLP5        0.0000 
     17 N          -7.1135   42.2075    5.9620 N.am      2 SEC2        0.0000 
     18 N          -7.4290   41.0950    6.7160 N.am     10 SEL2        0.0000 
     19 N          -6.7980   43.3200    5.2080 N.am      6 SEP2        0.0000 
     20 O          -8.5320   37.7825    7.7460 O.2       1 ALC1        0.0000 
     21 O          -8.6590   39.2390    7.0180 O.2       9 ALL1        0.0000 
     22 O          -8.4050   36.3260    8.4740 O.2       5 ALP1        0.0000 
     23 CA         -8.9385   40.8915    5.1145 C.3       4 GLC5        0.0000 
     24 CA        -10.0100   39.8130    6.7330 C.3      12 GLL5        0.0000 
     25 CA         -7.8670   41.9700    3.4960 C.3       8 GLP5        0.0000 
     26 CA         -9.8795   38.6665    8.6540 C.3       4 GLC5        0.0000 
     27 CA         -9.7490   37.5200   10.5750 C.3       8 GLP5        0.0000 
     28 N          -9.8985   39.9850   10.4795 N.am      2 SEC2        0.0000 
     29 N         -10.2160   40.3790    9.1080 N.am     10 SEL2        0.0000 
     30 N          -9.5810   39.5910   11.8510 N.am      6 SEP2        0.0000 
     31 CA        -10.0010   43.9640    7.7335 C.3       4 GLC5        0.0000 
     32 CA        -11.5100   42.8220    8.5510 C.3      12 GLL5        0.0000 
     33 CA         -8.4920   45.1060    6.9160 C.3       8 GLP5        0.0000 
     34 CA        -11.3740   44.6725    9.4500 C.3       4 GLC5        0.0000 
     35 CA        -11.2380   46.5230   10.3490 C.3       8 GLP5        0.0000 
     36 CA        -10.7785   42.7525   10.3955 C.3       4 GLC5        0.0000 
     37 CA        -10.0470   42.6830   12.2400 C.3       8 GLP5        0.0000 
     38 CA        -11.1255   37.9660    8.5305 C.3       4 GLC5        0.0000 
     39 CA        -11.0070   38.6660    6.6910 C.3      12 GLL5        0.0000 
     40 CA        -11.2440   37.2660   10.3700 C.3       8 GLP5        0.0000 
     41 CA         -8.4200   38.3190    3.9855 C.3       4 GLC5        0.0000 
     42 CA         -9.7140   36.9630    5.1840 C.3      12 GLL5        0.0000 
     43 CA         -3.6690   38.9595    9.3465 C.3       4 GLC5        0.0000 
     44 CA         -5.3640   39.8640    8.4060 C.3      12 GLL5        0.0000 
     45 CA         -1.9740   38.0550   10.2870 C.3       8 GLP5        0.0000 
     46 CA         -6.2445   42.4915   10.0870 C.3       4 GLC5        0.0000 
     47 CA         -5.0640   41.0430   10.6230 C.3      12 GLL5        0.0000 
     48 CA         -7.4250   43.9400    9.5510 C.3       8 GLP5        0.0000 
     49 CA         -4.7120   42.9130   11.1590 C.3       4 GLC5        0.0000 
     50 CA         -4.3600   44.7830   11.6950 C.3       8 GLP5        0.0000 
     51 CA         -3.6080   39.6835   11.1130 C.3       4 GLC5        0.0000 
     52 CA         -2.1520   38.3240   11.6030 C.3       8 GLP5        0.0000 
     53 CA         -4.2730   38.6160   11.0620 C.3       4 GLC5        0.0000 
     54 CA         -6.3940   38.9080   10.5210 C.3      12 GLL5        0.0000 
     55 CA         -8.0715   38.2140   10.5480 C.3       4 GLC5        0.0000 
     56 CA         -7.8925   39.6395   11.7930 C.3       4 GLC5        0.0000 
     57 CA         -9.3910   40.3710   13.0650 C.3       8 GLP5        0.0000 
     58 CA        -11.4154   39.2926    1.2056 C.3       4 GLC5        0.0000 
     59 CA        -11.3190   36.9920    1.9490 C.3      12 GLL5        0.0000 
     60 CA        -10.3700   40.5600    0.2530 C.3       8 GLP5        0.0000 
     61 CA         -6.2538   41.8620    8.6232 C.3       4 GLC5        0.0000 
     62 CA         -6.8150   43.6910    8.1650 C.3       8 GLP5        0.0000 
     63 CA         -7.2172   41.2163   11.4735 C.3       4 GLC5        0.0000 
     64 CA         -6.0210   40.2020    9.7570 C.3      12 GLL5        0.0000 
     65 CA         -8.8920   41.8100   12.7570 C.3       8 GLP5        0.0000 
@<TRIPOS>BOND
@<TRIPOS>SUBSTRUCTURE
     1 ALC1        4 GROUP        1 X    ALC  0     ROOT ALC X 1
     2 SEC2       17 GROUP        1 X    SEC  0     **** SEC X 2
     3 ZIC7        1 GROUP        1 X    ZIC  0     **** ZIC X 5
     4 GLC5       14 GROUP        1 X    GLC  0     **** GLC X 6
     5 ALP1        6 GROUP        1 Y    ALP  0     ROOT ALP Y 8
     6 SEP2       19 GROUP        1 Y    SEP  0     **** SEP Y 9
     7 ZIP7        3 GROUP        1 Y    ZIP  0     **** ZIP Y 12
     8 GLP5       16 GROUP        1 Y    GLP  0     **** GLP Y 13
     9 ALL1        5 GROUP        1 Z    ALL  0     ROOT ALL Z 15
    10 SEL2       18 GROUP        1 Z    SEL  0     **** SEL Z 16
    11 ZIL7        2 GROUP        1 Z    ZIL  0     **** ZIL Z 19
    12 GLL5       15 GROUP        1 Z    GLL  0     **** GLL Z 20
@<TRIPOS>SET

