#    Name: 2dw0_GM6_2_ligand
#    Modification time : Mon Apr  7 17:30:26 2014

@<TRIPOS>MOLECULE
2dw0_GM6_2_ligand
   56    57     1     0     0
SMALL
NO_CHARGES


@<TRIPOS>ATOM
      1 OAG        -1.9340   37.8470    6.7960 O.3       1 GM6901      0.0000 
      2 NAF        -3.0810   38.4980    6.4700 N.am      1 GM6901      0.0000 
      3 CAD        -4.2450   37.8660    6.5450 C.2       1 GM6901      0.0000 
      4 OAE        -4.3720   36.7120    6.9000 O.2       1 GM6901      0.0000 
      5 CAC        -5.4640   38.7010    6.1660 C.3       1 GM6901      0.0000 
      6 CAB        -6.2780   39.0850    7.4030 C.3       1 GM6901      0.0000 
      7 CAK        -7.5150   39.9140    7.0080 C.2       1 GM6901      0.0000 
      8 OAL        -7.4290   41.0950    6.7160 O.2       1 GM6901      0.0000 
      9 NAM        -8.6590   39.2390    7.0180 N.am      1 GM6901      0.0000 
     10 CAN       -10.0100   39.8130    6.7330 C.3       1 GM6901      0.0000 
     11 CAY       -10.3930   40.7280    7.9310 C.2       1 GM6901      0.0000 
     12 OAZ       -10.2160   40.3790    9.1080 O.2       1 GM6901      0.0000 
     13 NBB       -10.9420   41.8960    7.5420 N.am      1 GM6901      0.0000 
     14 CBA       -11.5100   42.8220    8.5510 C.3       1 GM6901      0.0000 
     15 CAO       -11.0070   38.6660    6.6910 C.3       1 GM6901      0.0000 
     16 CAP       -10.6860   37.8640    5.4110 C.2       1 GM6901      0.0000 
     17 CAT        -9.7140   36.9630    5.1840 C.2       1 GM6901      0.0000 
     18 NAU        -9.7790   36.5090    3.9200 N.pl3     1 GM6901      0.0000 
     19 CAR       -10.7950   37.0900    3.2690 C.ar      1 GM6901      0.0000 
     20 CAV       -11.3190   36.9920    1.9490 C.ar      1 GM6901      0.0000 
     21 CAX       -12.4480   37.7830    1.5900 C.ar      1 GM6901      0.0000 
     22 CAW       -13.0380   38.6630    2.5470 C.ar      1 GM6901      0.0000 
     23 CAS       -12.4990   38.7420    3.8500 C.ar      1 GM6901      0.0000 
     24 CAQ       -11.3710   37.9520    4.2200 C.ar      1 GM6901      0.0000 
     25 CAA        -5.3640   39.8640    8.4060 C.3       1 GM6901      0.0000 
     26 CAH        -6.0210   40.2020    9.7570 C.3       1 GM6901      0.0000 
     27 CAJ        -5.0640   41.0430   10.6230 C.3       1 GM6901      0.0000 
     28 CAI        -6.3940   38.9080   10.5210 C.3       1 GM6901      0.0000 
     29 H          -3.0312   39.4943    6.1625 H         1 GM6901      0.0000 
     30 H          -6.0957   38.1289    5.4858 H         1 GM6901      0.0000 
     31 H          -5.1358   39.6084    5.6582 H         1 GM6901      0.0000 
     32 H          -6.6071   38.1793    7.8936 H         1 GM6901      0.0000 
     33 H          -8.6847   38.1990    7.2401 H         1 GM6901      0.0000 
     34 H         -10.0252   40.3567    5.8536 H         1 GM6901      0.0000 
     35 H         -10.9956   42.1977    6.5668 H         1 GM6901      0.0000 
     36 H         -12.0030   39.0473    6.6248 H         1 GM6901      0.0000 
     37 H         -10.8758   38.0339    7.5425 H         1 GM6901      0.0000 
     38 H          -9.0506   36.6771    5.8474 H         1 GM6901      0.0000 
     39 H          -9.1681   35.8468    3.5328 H         1 GM6901      0.0000 
     40 H         -10.8955   36.3690    1.2746 H         1 GM6901      0.0000 
     41 H         -12.8351   37.7219    0.6517 H         1 GM6901      0.0000 
     42 H         -13.8418   39.2270    2.2852 H         1 GM6901      0.0000 
     43 H         -12.9181   39.3711    4.5403 H         1 GM6901      0.0000 
     44 H          -5.0386   40.7975    7.9196 H         1 GM6901      0.0000 
     45 H          -4.4597   39.2608    8.5855 H         1 GM6901      0.0000 
     46 H          -6.9155   40.7666    9.5830 H         1 GM6901      0.0000 
     47 H         -10.8215   43.1172    9.2134 H         1 GM6901      0.0000 
     48 H         -11.8834   43.6479    8.1286 H         1 GM6901      0.0000 
     49 H         -12.2520   42.3968    9.0693 H         1 GM6901      0.0000 
     50 H          -4.2095   40.5583   10.8100 H         1 GM6901      0.0000 
     51 H          -4.8208   41.9048   10.1779 H         1 GM6901      0.0000 
     52 H          -5.4695   41.2741   11.5074 H         1 GM6901      0.0000 
     53 H          -5.5913   38.3407   10.7047 H         1 GM6901      0.0000 
     54 H          -6.8201   39.1074   11.4034 H         1 GM6901      0.0000 
     55 H          -7.0391   38.3447   10.0047 H         1 GM6901      0.0000 
     56 H          -1.2687   38.5709    6.9789 H         1 GM6901      0.0000 
@<TRIPOS>BOND
     1    2    1 1    
     2   56    1 1    
     3    3    2 am   
     4   29    2 1    
     5    4    3 2    
     6    5    3 1    
     7    6    5 1    
     8   30    5 1    
     9   31    5 1    
    10    7    6 1    
    11   25    6 1    
    12   32    6 1    
    13    8    7 2    
    14    9    7 am   
    15   10    9 1    
    16   33    9 1    
    17   11   10 1    
    18   15   10 1    
    19   34   10 1    
    20   12   11 2    
    21   13   11 am   
    22   14   13 1    
    23   35   13 1    
    24   47   14 1    
    25   48   14 1    
    26   49   14 1    
    27   16   15 1    
    28   36   15 1    
    29   37   15 1    
    30   17   16 2    
    31   24   16 1    
    32   18   17 1    
    33   38   17 1    
    34   19   18 1    
    35   39   18 1    
    36   20   19 ar   
    37   24   19 ar   
    38   21   20 ar   
    39   40   20 1    
    40   22   21 ar   
    41   41   21 1    
    42   23   22 ar   
    43   42   22 1    
    44   24   23 ar   
    45   43   23 1    
    46   26   25 1    
    47   44   25 1    
    48   45   25 1    
    49   27   26 1    
    50   28   26 1    
    51   46   26 1    
    52   50   27 1    
    53   51   27 1    
    54   52   27 1    
    55   53   28 1    
    56   54   28 1    
    57   55   28 1    
@<TRIPOS>SUBSTRUCTURE
     1 GM6901      1 GROUP   
@<TRIPOS>SET

