#    Name: 1H82_1_CAVITY_N1_6.mol2
#    Modification time : Tue Mar 11 04:39:10 2014

@<TRIPOS>MOLECULE
1H82_1_CAVITY_N1_6.mol2
   72     0     4     0     0
SMALL
NO_CHARGES


@<TRIPOS>ATOM
      1 CA        145.2117   57.3976  -12.5876 C.3       4 GLY6        0.0000 
      2 O         142.5691   58.0920  -11.3489 O.2       1 ALA2        0.0000 
      3 O         142.5402   59.3731  -12.1286 O.2       1 ALA2        0.0000 
      4 O         141.8596   57.3932  -12.4706 O.2       1 ALA2        0.0000 
      5 O         141.8307   58.6743  -13.2504 O.2       1 ALA2        0.0000 
      6 CZ        134.7280   56.3322   -5.2933 C.ar      3 PHE5        0.0000 
      7 O         134.0185   55.6334   -6.4151 O.2       1 ALA2        0.0000 
      8 CZ        133.9896   56.9145   -7.1948 C.ar      3 PHE5        0.0000 
      9 CZ        133.9607   58.1955   -7.9746 C.ar      3 PHE5        0.0000 
     10 CA        133.2801   56.2157   -8.3166 C.3       4 GLY6        0.0000 
     11 CA        133.2513   57.4967   -9.0964 C.3       4 GLY6        0.0000 
     12 N         133.2224   58.7778   -9.8761 N.2       1 ALA2        0.0000 
     13 CA        132.5418   56.7980  -10.2181 C.3       4 GLY6        0.0000 
     14 O         132.5129   58.0790  -10.9979 O.2       1 ALA2        0.0000 
     15 CA        139.2170   58.0877  -11.2319 C.3       4 GLY6        0.0000 
     16 CA        139.1882   59.3688  -12.0116 C.3       4 GLY6        0.0000 
     17 O         138.6052   59.1337   -9.4907 O.2       1 ALA2        0.0000 
     18 O         143.1520   58.3271  -13.8698 O.2       1 ALA2        0.0000 
     19 CA        137.9246   57.1538   -9.8327 C.3       4 GLY6        0.0000 
     20 CA        137.8957   58.4349  -10.6125 C.3       4 GLY6        0.0000 
     21 CA        137.8669   59.7160  -11.3923 C.3       4 GLY6        0.0000 
     22 CA        137.2151   56.4551  -10.9545 C.3       4 GLY6        0.0000 
     23 CA        137.1863   57.7361  -11.7343 C.3       4 GLY6        0.0000 
     24 CA        137.1574   59.0172  -12.5140 C.3       4 GLY6        0.0000 
     25 O         141.2189   59.7203  -11.5093 O.2       1 ALA2        0.0000 
     26 O         140.5383   57.7405  -11.8513 O.2       1 ALA2        0.0000 
     27 CA        140.5094   59.0215  -12.6310 C.3       4 GLY6        0.0000 
     28 CA        139.8288   57.0417  -12.9730 C.3       4 GLY6        0.0000 
     29 CA        139.8000   58.3227  -13.7528 C.3       4 GLY6        0.0000 
     30 CZ        144.6287   57.1625  -10.0667 C.ar      3 PHE5        0.0000 
     31 O         144.5999   58.4436  -10.8465 O.2       1 ALA2        0.0000 
     32 CA        143.9192   56.4637  -11.1885 C.3       4 GLY6        0.0000 
     33 CA        143.8904   57.7448  -11.9683 C.3       4 GLY6        0.0000 
     34 N         143.8615   59.0259  -12.7480 N.2       1 ALA2        0.0000 
     35 CA        134.5725   57.1495   -9.7157 C.3       4 GLY6        0.0000 
     36 O         134.5437   58.4306  -10.4955 O.2       1 ALA2        0.0000 
     37 CZ        133.3201   60.5226   -7.0132 C.ar      3 PHE5        0.0000 
     38 N         133.2912   61.8037   -7.7930 N.2       1 ALA2        0.0000 
     39 CZ        132.6972   55.9806   -5.7957 C.ar      3 PHE5        0.0000 
     40 CZ        132.6683   57.2617   -6.5755 C.ar      3 PHE5        0.0000 
     41 CZ        132.6394   58.5428   -7.3552 C.ar      3 PHE5        0.0000 
     42 N         132.6106   59.8238   -8.1350 N.2       1 ALA2        0.0000 
     43 N         132.5817   61.1049   -8.9148 N.2       1 ALA2        0.0000 
     44 CA        131.9877   55.2818   -6.9175 C.3       4 GLY6        0.0000 
     45 CA        131.9588   56.5629   -7.6972 C.3       4 GLY6        0.0000 
     46 NZ        131.9300   57.8440   -8.4770 N.2       2 LYS4        0.0000 
     47 CZ        131.9011   59.1250   -9.2568 C.ar      3 PHE5        0.0000 
     48 NZ        131.2205   57.1452   -9.5988 N.2       2 LYS4        0.0000 
     49 CZ        131.1916   58.4263  -10.3785 C.ar      3 PHE5        0.0000 
     50 CZ        131.9988   60.8698   -6.3939 C.ar      3 PHE5        0.0000 
     51 CZ        131.3182   58.8900   -6.7359 C.ar      3 PHE5        0.0000 
     52 CZ        131.2893   60.1711   -7.5156 C.ar      3 PHE5        0.0000 
     53 NZ        130.6375   56.9101   -7.0779 N.2       2 LYS4        0.0000 
     54 NZ        130.6087   58.1912   -7.8576 N.2       2 LYS4        0.0000 
     55 NZ        130.5798   59.4723   -8.6374 N.2       2 LYS4        0.0000 
     56 CA        138.5364   56.1078  -11.5739 C.3       4 GLY6        0.0000 
     57 CA        138.5075   57.3889  -12.3536 C.3       4 GLY6        0.0000 
     58 CA        138.4787   58.6700  -13.1334 C.3       4 GLY6        0.0000 
     59 CA        137.7981   56.6901  -13.4754 C.3       4 GLY6        0.0000 
     60 CA        136.0492   55.9849   -5.9127 C.3       4 GLY6        0.0000 
     61 CZ        136.0204   57.2660   -6.6925 C.ar      3 PHE5        0.0000 
     62 CZ        135.9915   58.5471   -7.4722 C.ar      3 PHE5        0.0000 
     63 O         135.3109   56.5672   -7.8142 O.2       1 ALA2        0.0000 
     64 N         135.2820   57.8483   -8.5940 N.2       1 ALA2        0.0000 
     65 N         137.3417   56.9188   -7.3118 N.2       1 ALA2        0.0000 
     66 N         137.3128   58.1999   -8.0916 N.2       1 ALA2        0.0000 
     67 N         137.2839   59.4809   -8.8714 N.2       1 ALA2        0.0000 
     68 N         136.6322   56.2200   -8.4336 N.2       1 ALA2        0.0000 
     69 CA        136.6033   57.5011   -9.2134 C.3       4 GLY6        0.0000 
     70 N         136.5744   58.7821   -9.9931 N.2       1 ALA2        0.0000 
     71 CA        135.8938   56.8023  -10.3351 C.3       4 GLY6        0.0000 
     72 CA        135.8650   58.0834  -11.1149 C.3       4 GLY6        0.0000 
@<TRIPOS>BOND
@<TRIPOS>SUBSTRUCTURE
     1 ALA2        2 GROUP   
     2 LYS4       46 GROUP   
     3 PHE5        6 GROUP   
     4 GLY6        1 GROUP   
@<TRIPOS>SET

