#    Name: 1h82_FAD_1_INTS_M
#    Modification time : Tue Mar 25 05:04:06 2014

@<TRIPOS>MOLECULE
1h82_FAD_1_INTS_M
  146     0    12     0     0
SMALL
NO_CHARGES


@<TRIPOS>ATOM
      1 NZ        142.6535   58.1335   -9.1175 N.4       3 LYC4        0.0000 
      2 NZ        143.7740   57.7170   -9.8540 N.4      11 LYL4        0.0000 
      3 NZ        141.3330   59.8640   -8.5160 N.4       7 LYP4        0.0000 
      4 N         142.6535   58.1335   -9.1175 N.am      2 SEC2        0.0000 
      5 N         143.7740   57.7170   -9.8540 N.am     10 SEL2        0.0000 
      6 N         141.5330   58.5500   -8.3810 N.am      6 SEP2        0.0000 
      7 N         142.9470   59.1555   -9.5845 N.am      2 SEC2        0.0000 
      8 N         142.1200   60.5940   -9.3150 N.am      6 SEP2        0.0000 
      9 N         141.7760   55.4655  -10.9065 N.am      2 SEC2        0.0000 
     10 N         142.0920   56.6840  -11.6260 N.am     10 SEL2        0.0000 
     11 N         141.4600   54.2470  -10.1870 N.am      6 SEP2        0.0000 
     12 CA        146.9455   59.5515  -11.1655 C.3       4 GLC5        0.0000 
     13 CA        145.7830   57.9300  -11.8230 C.3      12 GLL5        0.0000 
     14 CA        148.1080   61.1730  -10.5080 C.3       8 GLP5        0.0000 
     15 CA        148.1810   56.9940  -13.2060 C.3       4 GLC5        0.0000 
     16 CA        146.7980   56.8140  -11.9310 C.3      12 GLL5        0.0000 
     17 CA        149.5640   57.1740  -14.4810 C.3       8 GLP5        0.0000 
     18 CA        144.9645   54.4580  -11.1975 C.3       4 GLC5        0.0000 
     19 CA        146.5480   55.5690  -11.0950 C.3      12 GLL5        0.0000 
     20 CA        143.3810   53.3470  -11.3000 C.3       8 GLP5        0.0000 
     21 CA        145.6115   55.2940   -9.4880 C.3       4 GLC5        0.0000 
     22 CA        144.6750   55.0190   -7.8810 C.3       8 GLP5        0.0000 
     23 N         146.1985   52.8875  -12.0445 N.am      2 SEC2        0.0000 
     24 N         146.5170   54.4020  -11.9590 N.am     10 SEL2        0.0000 
     25 N         145.8800   51.3730  -12.1300 N.am      6 SEP2        0.0000 
     26 O         147.6445   54.0850  -12.6400 O.2       1 ALC1        0.0000 
     27 O         146.5170   54.4020  -11.9590 O.2       9 ALL1        0.0000 
     28 O         148.7720   53.7680  -13.3210 O.2       5 ALP1        0.0000 
     29 O         147.7735   53.3650  -11.8155 O.2       1 ALC1        0.0000 
     30 O         149.0300   52.3280  -11.6720 O.2       5 ALP1        0.0000 
     31 CA        148.5040   55.1900   -8.1030 C.3       4 GLC5        0.0000 
     32 CA        147.7260   55.5020  -10.1410 C.3      12 GLL5        0.0000 
     33 CA        149.2820   54.8780   -6.0650 C.3       8 GLP5        0.0000 
     34 CA        146.5710   54.6830   -8.9215 C.3       4 GLC5        0.0000 
     35 CA        145.4160   53.8640   -7.7020 C.3       8 GLP5        0.0000 
     36 N         146.8835   53.6265   -9.2990 N.am      2 SEC2        0.0000 
     37 N         148.0800   54.1700   -9.7880 N.am     10 SEL2        0.0000 
     38 N         145.6870   53.0830   -8.8100 N.am      6 SEP2        0.0000 
     39 O         148.5550   53.2490  -10.7300 O.2       1 ALC1        0.0000 
     40 O         148.0800   54.1700   -9.7880 O.2       9 ALL1        0.0000 
     41 CA        149.1915   56.7285  -12.6840 C.3       4 GLC5        0.0000 
     42 CA        148.8190   56.2830  -10.8870 C.3      12 GLL5        0.0000 
     43 CA        150.6515   59.4535   -9.5805 C.3       4 GLC5        0.0000 
     44 CA        151.8720   57.5980   -9.4280 C.3      12 GLL5        0.0000 
     45 CA        149.4310   61.3090   -9.7330 C.3       8 GLP5        0.0000 
     46 CA        154.9060   56.2230   -9.5575 C.3       4 GLC5        0.0000 
     47 CA        153.2660   57.7570   -9.5640 C.3      12 GLL5        0.0000 
     48 CA        156.5460   54.6890   -9.5510 C.3       8 GLP5        0.0000 
     49 CA        154.9610   58.4465  -10.5005 C.3       4 GLC5        0.0000 
     50 CA        156.6560   59.1360  -11.4370 C.3       8 GLP5        0.0000 
     51 O         155.4595   58.7295   -8.5615 O.2       1 ALC1        0.0000 
     52 O         154.0200   58.3600   -8.6300 O.2       9 ALL1        0.0000 
     53 O         156.8990   59.0990   -8.4930 O.2       5 ALP1        0.0000 
     54 N         155.2990   57.0930  -10.5185 N.am      2 SEC2        0.0000 
     55 N         153.8590   57.2210  -10.6540 N.am     10 SEL2        0.0000 
     56 N         156.7390   56.9650  -10.3830 N.am      6 SEP2        0.0000 
     57 CA        153.0190   58.1905  -12.3145 C.3       4 GLC5        0.0000 
     58 CA        153.1120   56.5840  -11.5530 C.3      12 GLL5        0.0000 
     59 CA        152.9260   59.7970  -13.0760 C.3       8 GLP5        0.0000 
     60 CA        152.5770   55.0075  -12.8380 C.3       4 GLC5        0.0000 
     61 CA        152.0420   53.4310  -14.1230 C.3       8 GLP5        0.0000 
     62 CA        152.7795   55.1460  -10.4440 C.3       4 GLC5        0.0000 
     63 CA        152.4470   53.7080   -9.3350 C.3       8 GLP5        0.0000 
     64 CA        154.8290   55.6365  -10.5520 C.3       4 GLC5        0.0000 
     65 CA        154.7965   57.5590  -12.1875 C.3       4 GLC5        0.0000 
     66 CA        156.4810   58.5340  -12.8220 C.3       8 GLP5        0.0000 
     67 N         152.0590   54.8520  -11.6545 N.am      2 SEC2        0.0000 
     68 N         151.7970   56.4190  -11.5790 N.am     10 SEL2        0.0000 
     69 N         152.3210   53.2850  -11.7300 N.am      6 SEP2        0.0000 
     70 CA        150.4025   57.0450  -12.4685 C.3       4 GLC5        0.0000 
     71 CA        151.2410   56.9160  -10.4560 C.3      12 GLL5        0.0000 
     72 N         133.4915   58.7740  -11.7900 N.am      2 SEC2        0.0000 
     73 N         133.0010   57.9970  -10.3160 N.am     10 SEL2        0.0000 
     74 N         133.9820   59.5510  -13.2640 N.am      6 SEP2        0.0000 
     75 N         132.8050   58.9475  -12.6570 N.am      2 SEC2        0.0000 
     76 N         131.6280   58.3440  -12.0500 N.am     10 SEL2        0.0000 
     77 O         130.2260   56.1100  -11.4350 O.2       1 ALC1        0.0000 
     78 O         130.9660   56.8250  -10.4560 O.2       9 ALL1        0.0000 
     79 O         129.4860   55.3950  -12.4140 O.2       5 ALP1        0.0000 
     80 N         131.0535   53.9820   -9.0775 N.am      2 SEC2        0.0000 
     81 N         130.4430   55.2090   -8.8550 N.am     10 SEL2        0.0000 
     82 N         131.6640   52.7550   -9.3000 N.am      6 SEP2        0.0000 
     83 N         129.8545   54.2750   -9.6805 N.am      2 SEC2        0.0000 
     84 N         129.2660   53.3410  -10.5060 N.am      6 SEP2        0.0000 
     85 CA        133.4690   53.5235   -4.5140 C.3       4 GLC5        0.0000 
     86 CA        134.0750   55.4150   -5.5510 C.3      12 GLL5        0.0000 
     87 CA        132.8630   51.6320   -3.4770 C.3       8 GLP5        0.0000 
     88 CA        134.1490   55.0765   -2.9335 C.3       4 GLC5        0.0000 
     89 CA        135.6760   54.4760   -3.8340 C.3      12 GLL5        0.0000 
     90 CA        132.6220   55.6770   -2.0330 C.3       8 GLP5        0.0000 
     91 CA        134.2695   53.0540   -3.6555 C.3       4 GLC5        0.0000 
     92 CA        137.4550   53.8345   -2.9145 C.3       4 GLC5        0.0000 
     93 CA        139.2340   53.1930   -1.9950 C.3       8 GLP5        0.0000 
     94 CA        136.9200   55.6220   -3.0245 C.3       4 GLC5        0.0000 
     95 CA        138.1640   56.7680   -2.2150 C.3       8 GLP5        0.0000 
     96 CA        138.9375   55.6030   -7.2005 C.3       4 GLC5        0.0000 
     97 CA        137.9160   55.5340   -5.5920 C.3      12 GLL5        0.0000 
     98 CA        139.9590   55.6720   -8.8090 C.3       8 GLP5        0.0000 
     99 CA        138.8735   54.0395   -4.8160 C.3       4 GLC5        0.0000 
    100 CA        139.8310   52.5450   -4.0400 C.3       8 GLP5        0.0000 
    101 CA        138.0700   56.0800   -7.9495 C.3       4 GLC5        0.0000 
    102 CA        136.1810   56.4880   -7.0900 C.3      12 GLL5        0.0000 
    103 CA        135.3715   59.0605   -7.1815 C.3       4 GLC5        0.0000 
    104 CA        135.4910   58.4550   -9.2420 C.3      12 GLL5        0.0000 
    105 CA        135.2520   59.6660   -5.1210 C.3       8 GLP5        0.0000 
    106 CA        135.3045   57.1840  -11.8540 C.3       4 GLC5        0.0000 
    107 CA        136.2740   57.8220  -10.4040 C.3      12 GLL5        0.0000 
    108 CA        134.3350   56.5460  -13.3040 C.3       8 GLP5        0.0000 
    109 CA        138.2900   60.7050  -10.5320 C.3       4 GLC5        0.0000 
    110 CA        137.4850   58.7240  -10.6870 C.3      12 GLL5        0.0000 
    111 CA        139.0950   62.6860  -10.3770 C.3       8 GLP5        0.0000 
    112 O         135.9730   60.7185  -10.2845 O.2       1 ALC1        0.0000 
    113 O         136.9390   60.0130  -10.9760 O.2       9 ALL1        0.0000 
    114 O         135.0070   61.4240   -9.5930 O.2       5 ALP1        0.0000 
    115 CA        139.4625   60.8210  -11.0205 C.3       4 GLC5        0.0000 
    116 CA        139.8300   58.9560  -11.6640 C.3      12 GLL5        0.0000 
    117 N         142.3525   59.0745  -15.5255 N.am      2 SEC2        0.0000 
    118 N         142.6640   59.1200  -14.1590 N.am     10 SEL2        0.0000 
    119 N         142.0410   59.0290  -16.8920 N.am      6 SEP2        0.0000 
    120 N         143.1135   60.1680  -14.8835 N.am      2 SEC2        0.0000 
    121 N         143.5630   61.2160  -15.6080 N.am      6 SEP2        0.0000 
    122 N         142.6570   61.1425  -14.1470 N.am      2 SEC2        0.0000 
    123 N         141.7510   61.0690  -12.6860 N.am     10 SEL2        0.0000 
    124 N         141.1530   62.4085  -12.7705 N.am      2 SEC2        0.0000 
    125 N         140.5550   63.7480  -12.8550 N.am      6 SEP2        0.0000 
    126 N         142.4150   59.8305  -10.4555 N.am      2 SEC2        0.0000 
    127 N         142.7100   59.0670  -11.5960 N.am     10 SEL2        0.0000 
    128 CA        145.1157   56.4095  -13.3555 C.3       4 GLC5        0.0000 
    129 CA        143.9410   55.4470  -14.8340 C.3       8 GLP5        0.0000 
    130 CA        152.4155   58.5469  -11.5260 C.3       4 GLC5        0.0000 
    131 CA        152.1760   55.5024   -9.6555 C.3       4 GLC5        0.0000 
    132 CA        133.9303   54.7327   -7.6420 C.3       4 GLC5        0.0000 
    133 CA        133.9080   53.7030   -9.1330 C.3       8 GLP5        0.0000 
    134 CA        135.7557   53.5215   -5.6137 C.3       4 GLC5        0.0000 
    135 CA        136.3070   52.1460   -6.6460 C.3       8 GLP5        0.0000 
    136 CA        136.4952   54.1060   -6.5351 C.3       4 GLC5        0.0000 
    137 CA        136.4560   55.7540   -5.9250 C.3      12 GLL5        0.0000 
    138 CA        134.7180   55.1445   -8.2235 C.3       4 GLC5        0.0000 
    139 CA        137.1222   56.9357   -4.7345 C.3       4 GLC5        0.0000 
    140 CA        137.6940   57.8720   -3.1470 C.3       8 GLP5        0.0000 
    141 CA        135.1037   56.2593  -10.1445 C.3       4 GLC5        0.0000 
    142 CA        134.3250   54.3800  -10.4660 C.3       8 GLP5        0.0000 
    143 CA        138.9295   59.5900  -13.4123 C.3       4 GLC5        0.0000 
    144 CA        138.4380   58.3300  -11.8270 C.3      12 GLL5        0.0000 
    145 CA        138.7250   60.5370  -15.0790 C.3       8 GLP5        0.0000 
    146 CA        139.4274   57.2067  -10.1348 C.3       4 GLC5        0.0000 
@<TRIPOS>BOND
@<TRIPOS>SUBSTRUCTURE
     1 ALC1       26 GROUP        1 X    ALC  0     ROOT ALC X 1
     2 SEC2        4 GROUP        1 X    SEC  0     **** SEC X 2
     3 LYC4        1 GROUP        1 X    LYC  0     **** LYC X 4
     4 GLC5       12 GROUP        1 X    GLC  0     **** GLC X 6
     5 ALP1       28 GROUP        1 Y    ALP  0     ROOT ALP Y 8
     6 SEP2        6 GROUP        1 Y    SEP  0     **** SEP Y 9
     7 LYP4        3 GROUP        1 Y    LYP  0     **** LYP Y 11
     8 GLP5       14 GROUP        1 Y    GLP  0     **** GLP Y 13
     9 ALL1       27 GROUP        1 Z    ALL  0     ROOT ALL Z 15
    10 SEL2        5 GROUP        1 Z    SEL  0     **** SEL Z 16
    11 LYL4        2 GROUP        1 Z    LYL  0     **** LYL Z 18
    12 GLL5       13 GROUP        1 Z    GLL  0     **** GLL Z 20
@<TRIPOS>SET

