#    Name: 1h82_FAD_1_ligand
#    Modification time : Tue Mar 25 05:04:06 2014

@<TRIPOS>MOLECULE
1h82_FAD_1_ligand
   84    89     1     0     0
SMALL
NO_CHARGES


@<TRIPOS>ATOM
      1 PA        143.2390   57.5860  -11.2210 P.3       1 FAD579      0.0000 
      2 O1A       143.7740   57.7170   -9.8540 O.co2     1 FAD579      0.0000 
      3 O2A       142.0920   56.6840  -11.6260 O.co2     1 FAD579      0.0000 
      4 O5B       144.5140   57.4420  -12.1920 O.3       1 FAD579      0.0000 
      5 C5B       145.7830   57.9300  -11.8230 C.3       1 FAD579      0.0000 
      6 C4B       146.7980   56.8140  -11.9310 C.3       1 FAD579      0.0000 
      7 O4B       148.1100   57.2980  -11.5730 O.3       1 FAD579      0.0000 
      8 C3B       146.5480   55.5690  -11.0950 C.3       1 FAD579      0.0000 
      9 O3B       146.5170   54.4020  -11.9590 O.3       1 FAD579      0.0000 
     10 C2B       147.7260   55.5020  -10.1410 C.3       1 FAD579      0.0000 
     11 O2B       148.0800   54.1700   -9.7880 O.3       1 FAD579      0.0000 
     12 C1B       148.8190   56.2830  -10.8870 C.3       1 FAD579      0.0000 
     13 N9A       149.8980   56.9030  -10.1050 N.pl3     1 FAD579      0.0000 
     14 C8A       149.8170   57.5520   -8.8960 C.2       1 FAD579      0.0000 
     15 N7A       150.9870   57.9620   -8.4340 N.2       1 FAD579      0.0000 
     16 C5A       151.8720   57.5980   -9.4280 C.ar      1 FAD579      0.0000 
     17 C6A       153.2660   57.7570   -9.5640 C.ar      1 FAD579      0.0000 
     18 N6A       154.0200   58.3600   -8.6300 N.pl3     1 FAD579      0.0000 
     19 N1A       153.8590   57.2210  -10.6540 N.ar      1 FAD579      0.0000 
     20 C2A       153.1120   56.5840  -11.5530 C.ar      1 FAD579      0.0000 
     21 N3A       151.7970   56.4190  -11.5790 N.ar      1 FAD579      0.0000 
     22 C4A       151.2410   56.9160  -10.4560 C.ar      1 FAD579      0.0000 
     23 N1        133.0010   57.9970  -10.3160 N.2       1 FAD579      0.0000 
     24 C2        131.8860   57.7420  -10.9890 C.2       1 FAD579      0.0000 
     25 O2        131.6280   58.3440  -12.0500 O.2       1 FAD579      0.0000 
     26 N3        130.9660   56.8250  -10.4560 N.am      1 FAD579      0.0000 
     27 C4        131.2010   56.0980   -9.2800 C.2       1 FAD579      0.0000 
     28 O4        130.4430   55.2090   -8.8550 O.2       1 FAD579      0.0000 
     29 C4X       132.4110   56.4490   -8.5830 C.2       1 FAD579      0.0000 
     30 N5        132.5730   56.1040   -7.2910 N.2       1 FAD579      0.0000 
     31 C5X       133.8300   56.1100   -6.7510 C.ar      1 FAD579      0.0000 
     32 C6        134.0750   55.4150   -5.5510 C.ar      1 FAD579      0.0000 
     33 C7        135.3910   55.2210   -5.1070 C.ar      1 FAD579      0.0000 
     34 C7M       135.6760   54.4760   -3.8340 C.3       1 FAD579      0.0000 
     35 C8        136.4560   55.7540   -5.9250 C.ar      1 FAD579      0.0000 
     36 C8M       137.9160   55.5340   -5.5920 C.3       1 FAD579      0.0000 
     37 C9        136.1810   56.4880   -7.0900 C.ar      1 FAD579      0.0000 
     38 C9A       134.8750   56.6840   -7.5380 C.ar      1 FAD579      0.0000 
     39 N10       134.5240   57.5120   -8.5900 N.pl3     1 FAD579      0.0000 
     40 C10       133.2820   57.4080   -9.1450 C.2       1 FAD579      0.0000 
     41 C1'       135.4910   58.4550   -9.2420 C.3       1 FAD579      0.0000 
     42 C2'       136.2740   57.8220  -10.4040 C.3       1 FAD579      0.0000 
     43 O2'       136.7240   56.4860  -10.0740 O.3       1 FAD579      0.0000 
     44 C3'       137.4850   58.7240  -10.6870 C.3       1 FAD579      0.0000 
     45 O3'       136.9390   60.0130  -10.9760 O.3       1 FAD579      0.0000 
     46 C4'       138.4380   58.3300  -11.8270 C.3       1 FAD579      0.0000 
     47 O4'       138.5980   56.9080  -11.9140 O.3       1 FAD579      0.0000 
     48 C5'       139.8300   58.9560  -11.6640 C.3       1 FAD579      0.0000 
     49 O5'       140.5950   58.7910  -12.8510 O.3       1 FAD579      0.0000 
     50 P         141.9800   59.6030  -12.9240 P.3       1 FAD579      0.0000 
     51 O1P       142.6640   59.1200  -14.1590 O.co2     1 FAD579      0.0000 
     52 O2P       141.7510   61.0690  -12.6860 O.co2     1 FAD579      0.0000 
     53 O3P       142.7100   59.0670  -11.5960 O.3       1 FAD579      0.0000 
     54 H         145.7979   58.2999  -10.7890 H         1 FAD579      0.0000 
     55 H         146.1143   58.7507  -12.4733 H         1 FAD579      0.0000 
     56 H         146.8415   56.4888  -12.9910 H         1 FAD579      0.0000 
     57 H         145.6591   55.6990  -10.5447 H         1 FAD579      0.0000 
     58 H         147.4545   56.1095   -9.2750 H         1 FAD579      0.0000 
     59 H         149.2407   55.5991  -11.6377 H         1 FAD579      0.0000 
     60 H         148.9423   57.6881   -8.4305 H         1 FAD579      0.0000 
     61 H         154.9983   58.4230   -8.8276 H         1 FAD579      0.0000 
     62 H         153.5357   58.6921   -7.8206 H         1 FAD579      0.0000 
     63 H         153.6700   56.1280  -12.3981 H         1 FAD579      0.0000 
     64 H         130.0614   56.6774  -10.9612 H         1 FAD579      0.0000 
     65 H         133.2894   55.0518   -5.0037 H         1 FAD579      0.0000 
     66 H         136.9702   56.8920   -7.6268 H         1 FAD579      0.0000 
     67 H         136.2149   58.8218   -8.4962 H         1 FAD579      0.0000 
     68 H         134.9514   59.3354   -9.6274 H         1 FAD579      0.0000 
     69 H         135.6479   57.8296  -11.2744 H         1 FAD579      0.0000 
     70 H         138.0667   58.7988   -9.7596 H         1 FAD579      0.0000 
     71 H         138.0209   58.7161  -12.7615 H         1 FAD579      0.0000 
     72 H         140.3072   58.4754  -10.7974 H         1 FAD579      0.0000 
     73 H         139.6860   60.0169  -11.4121 H         1 FAD579      0.0000 
     74 H         136.6570   54.4201   -3.6481 H         1 FAD579      0.0000 
     75 H         135.2524   54.9170   -3.0428 H         1 FAD579      0.0000 
     76 H         135.3300   53.5383   -3.8670 H         1 FAD579      0.0000 
     77 H         138.5191   55.9731   -6.2580 H         1 FAD579      0.0000 
     78 H         138.1520   55.9047   -4.6937 H         1 FAD579      0.0000 
     79 H         138.1517   54.5622   -5.5792 H         1 FAD579      0.0000 
     80 H         147.4420   54.3319  -12.3324 H         1 FAD579      0.0000 
     81 H         148.4208   53.7601  -10.6340 H         1 FAD579      0.0000 
     82 H         137.5236   56.3316  -10.6544 H         1 FAD579      0.0000 
     83 H         136.2766   60.1829  -10.2463 H         1 FAD579      0.0000 
     84 H         139.5764   56.7665  -12.0646 H         1 FAD579      0.0000 
@<TRIPOS>BOND
     1    2    1 ar   
     2    3    1 ar   
     3    4    1 1    
     4   53    1 1    
     5    5    4 1    
     6    6    5 1    
     7   54    5 1    
     8   55    5 1    
     9    7    6 1    
    10    8    6 1    
    11   56    6 1    
    12   12    7 1    
    13    9    8 1    
    14   10    8 1    
    15   57    8 1    
    16   80    9 1    
    17   11   10 1    
    18   12   10 1    
    19   58   10 1    
    20   81   11 1    
    21   13   12 1    
    22   59   12 1    
    23   14   13 1    
    24   22   13 1    
    25   15   14 2    
    26   60   14 1    
    27   16   15 1    
    28   17   16 ar   
    29   22   16 ar   
    30   18   17 1    
    31   19   17 ar   
    32   61   18 1    
    33   62   18 1    
    34   20   19 ar   
    35   21   20 ar   
    36   63   20 1    
    37   22   21 ar   
    38   24   23 1    
    39   40   23 2    
    40   25   24 2    
    41   26   24 am   
    42   27   26 am   
    43   64   26 1    
    44   28   27 2    
    45   29   27 1    
    46   30   29 2    
    47   40   29 1    
    48   31   30 1    
    49   32   31 ar   
    50   38   31 ar   
    51   33   32 ar   
    52   65   32 1    
    53   34   33 1    
    54   35   33 ar   
    55   74   34 1    
    56   75   34 1    
    57   76   34 1    
    58   36   35 1    
    59   37   35 ar   
    60   77   36 1    
    61   78   36 1    
    62   79   36 1    
    63   38   37 ar   
    64   66   37 1    
    65   39   38 1    
    66   40   39 1    
    67   41   39 1    
    68   42   41 1    
    69   67   41 1    
    70   68   41 1    
    71   43   42 1    
    72   44   42 1    
    73   69   42 1    
    74   82   43 1    
    75   45   44 1    
    76   46   44 1    
    77   70   44 1    
    78   83   45 1    
    79   47   46 1    
    80   48   46 1    
    81   71   46 1    
    82   84   47 1    
    83   49   48 1    
    84   72   48 1    
    85   73   48 1    
    86   50   49 1    
    87   51   50 ar   
    88   52   50 ar   
    89   53   50 1    
@<TRIPOS>SUBSTRUCTURE
     1 FAD579      1 GROUP   
@<TRIPOS>SET

