#    Name: 1p9b_IMO_1_INTS_M
#    Modification time : Mon Mar 24 21:13:18 2014

@<TRIPOS>MOLECULE
1p9b_IMO_1_INTS_M
   74     0    15     0     0
SMALL
NO_CHARGES


@<TRIPOS>ATOM
      1 Zn         28.5685   81.5495   30.3125 Zn        4 ZIC7        0.0000 
      2 Zn         29.5860   81.8710   29.9960 Zn       14 ZIL7        0.0000 
      3 Zn         27.5510   81.2280   30.6290 Zn        9 ZIP7        0.0000 
      4 N          30.0110   82.4935   31.1830 N.am      2 SEC2        0.0000 
      5 N          29.5860   81.8710   29.9960 N.am     12 SEL2        0.0000 
      6 N          30.4360   83.1160   32.3700 N.am      7 SEP2        0.0000 
      7 CA         27.9855   81.6895   25.6260 C.3       5 GLC5        0.0000 
      8 CA         27.8470   83.6560   26.1160 C.3      15 GLL5        0.0000 
      9 CA         28.1240   79.7230   25.1360 C.3      10 GLP5        0.0000 
     10 CA         29.1770   83.3485   24.4670 C.3       5 GLC5        0.0000 
     11 CA         30.5070   83.0410   22.8180 C.3      10 GLP5        0.0000 
     12 CA         26.4870   85.0165   25.9410 C.3       5 GLC5        0.0000 
     13 CA         25.1270   86.3770   25.7660 C.3      10 GLP5        0.0000 
     14 CA         30.1935   84.9495   23.3275 C.3       5 GLC5        0.0000 
     15 CA         29.8800   86.8580   23.8370 C.3      15 GLL5        0.0000 
     16 CA         29.9325   88.7360   26.0925 C.3       5 GLC5        0.0000 
     17 CA         29.5280   88.2930   24.2060 C.3      15 GLL5        0.0000 
     18 CA         30.3370   89.1790   27.9790 C.3      10 GLP5        0.0000 
     19 CA         30.6305   86.2765   21.5015 C.3       5 GLC5        0.0000 
     20 CA         31.0050   88.2540   22.3330 C.3      15 GLL5        0.0000 
     21 CA         30.2560   84.2990   20.6700 C.3      10 GLP5        0.0000 
     22 CA         31.5955   90.6925   23.3980 C.3       5 GLC5        0.0000 
     23 CA         32.3010   88.9940   22.6240 C.3      15 GLL5        0.0000 
     24 CA         30.8900   92.3910   24.1720 C.3      10 GLP5        0.0000 
     25 CA         33.8260   87.7650   22.1830 C.3       5 GLC5        0.0000 
     26 CA         35.3510   86.5360   21.7420 C.3      10 GLP5        0.0000 
     27 NZ         30.7030   79.1765   28.6955 N.4       3 LYC4        0.0000 
     28 NZ         31.7010   80.8030   29.2930 N.4      13 LYL4        0.0000 
     29 NZ         29.7050   77.5500   28.0980 N.4       8 LYP4        0.0000 
     30 N          31.8075   80.0045   30.2720 N.am      2 SEC2        0.0000 
     31 N          31.7010   80.8030   29.2930 N.am     12 SEL2        0.0000 
     32 N          31.9140   79.2060   31.2510 N.am      7 SEP2        0.0000 
     33 N          32.5235   80.6240   28.2455 N.am      2 SEC2        0.0000 
     34 N          33.3460   80.4450   27.1980 N.am      7 SEP2        0.0000 
     35 NZ         29.6390   78.9475   28.0440 N.4       3 LYC4        0.0000 
     36 NZ         29.5730   80.3450   27.9900 N.4      13 LYL4        0.0000 
     37 N          28.2550   79.8715   27.5995 N.am      2 SEC2        0.0000 
     38 N          29.5730   80.3450   27.9900 N.am     12 SEL2        0.0000 
     39 N          26.9370   79.3980   27.2090 N.am      7 SEP2        0.0000 
     40 N          29.6390   78.9475   28.0440 N.am      2 SEC2        0.0000 
     41 N          29.7050   77.5500   28.0980 N.am      7 SEP2        0.0000 
     42 N          32.0590   90.9025   26.3715 N.am      2 SEC2        0.0000 
     43 N          33.2400   90.1210   26.2420 N.am     12 SEL2        0.0000 
     44 N          30.8780   91.6840   26.5010 N.am      7 SEP2        0.0000 
     45 N          32.7595   90.2655   27.4970 N.am      2 SEC2        0.0000 
     46 N          32.2790   90.4100   28.7520 N.am      7 SEP2        0.0000 
     47 N          34.5975   87.3050   26.1975 N.am      2 SEC2        0.0000 
     48 N          34.0790   88.0810   25.1120 N.am     12 SEL2        0.0000 
     49 N          35.1160   86.5290   27.2830 N.am      7 SEP2        0.0000 
     50 N          34.9910   87.1580   24.6015 N.am      2 SEC2        0.0000 
     51 N          35.9030   86.2350   24.0910 N.am      7 SEP2        0.0000 
     52 N          32.3125   83.0605   27.3725 N.am      2 SEC2        0.0000 
     53 N          30.7140   82.6460   27.8650 N.am     12 SEL2        0.0000 
     54 N          33.9110   83.4750   26.8800 N.am      7 SEP2        0.0000 
     55 N          32.7990   84.2415   26.6570 N.am      2 SEC2        0.0000 
     56 N          31.6870   85.0080   26.4340 N.am     12 SEL2        0.0000 
     57 N          27.5520   89.2500   25.5490 N.am      2 SEC2        0.0000 
     58 N          28.1780   88.3840   24.6110 N.am     12 SEL2        0.0000 
     59 N          26.9260   90.1160   26.4870 N.am      7 SEP2        0.0000 
     60 O          27.1310   88.0035   23.9675 O.2       1 ALC1        0.0000 
     61 O          28.1780   88.3840   24.6110 O.2      11 ALL1        0.0000 
     62 O          26.0840   87.6230   23.3240 O.2       6 ALP1        0.0000 
     63 O          28.8210   89.0505   20.6580 O.2       1 ALC1        0.0000 
     64 O          28.6940   88.6970   21.9060 O.2      11 ALL1        0.0000 
     65 O          28.9480   89.4040   19.4100 O.2       6 ALP1        0.0000 
     66 CA         30.2645   90.5080   23.8472 C.3       5 GLC5        0.0000 
     67 CA         29.7500   88.9570   22.8390 C.3      15 GLL5        0.0000 
     68 CA         31.3386   90.1974   21.1060 C.3       5 GLC5        0.0000 
     69 CA         31.3380   91.5950   19.6070 C.3      10 GLP5        0.0000 
     70 CA         31.4522   82.3773   26.3987 C.3       5 GLC5        0.0000 
     71 CA         30.4350   84.4130   26.4700 C.3      15 GLL5        0.0000 
     72 CA         32.7370   80.8770   25.9450 C.3      10 GLP5        0.0000 
     73 CA         30.2285   83.5331   24.7192 C.3       5 GLC5        0.0000 
     74 CA         29.9000   83.3420   27.2350 C.3      15 GLL5        0.0000 
@<TRIPOS>BOND
@<TRIPOS>SUBSTRUCTURE
     1 ALC1       60 GROUP        1 X    ALC  0     ROOT ALC X 1
     2 SEC2        4 GROUP        1 X    SEC  0     **** SEC X 2
     3 LYC4       27 GROUP        1 X    LYC  0     **** LYC X 4
     4 ZIC7        1 GROUP        1 X    ZIC  0     **** ZIC X 5
     5 GLC5        7 GROUP        1 X    GLC  0     **** GLC X 6
     6 ALP1       62 GROUP        1 Y    ALP  0     ROOT ALP Y 8
     7 SEP2        6 GROUP        1 Y    SEP  0     **** SEP Y 9
     8 LYP4       29 GROUP        1 Y    LYP  0     **** LYP Y 11
     9 ZIP7        3 GROUP        1 Y    ZIP  0     **** ZIP Y 12
    10 GLP5        9 GROUP        1 Y    GLP  0     **** GLP Y 13
    11 ALL1       61 GROUP        1 Z    ALL  0     ROOT ALL Z 15
    12 SEL2        5 GROUP        1 Z    SEL  0     **** SEL Z 16
    13 LYL4       28 GROUP        1 Z    LYL  0     **** LYL Z 18
    14 ZIL7        2 GROUP        1 Z    ZIL  0     **** ZIL Z 19
    15 GLL5        8 GROUP        1 Z    GLL  0     **** GLL Z 20
@<TRIPOS>SET

