#    Name: 1p9b_IMO_1_ligand
#    Modification time : Mon Mar 24 21:13:18 2014

@<TRIPOS>MOLECULE
1p9b_IMO_1_ligand
   37    39     1     0     0
SMALL
NO_CHARGES


@<TRIPOS>ATOM
      1 P          30.3700   81.3550   28.8180 P.3       1 IMO1601     0.0000 
      2 O1         29.5860   81.8710   29.9960 O.co2     1 IMO1601     0.0000 
      3 C2         27.8470   83.6560   26.1160 C.ar      1 IMO1601     0.0000 
      4 C1'        29.8800   86.8580   23.8370 C.3       1 IMO1601     0.0000 
      5 C2'        29.5280   88.2930   24.2060 C.3       1 IMO1601     0.0000 
      6 C3'        29.7500   88.9570   22.8390 C.3       1 IMO1601     0.0000 
      7 C4'        31.0050   88.2540   22.3330 C.3       1 IMO1601     0.0000 
      8 C5'        32.3010   88.9940   22.6240 C.3       1 IMO1601     0.0000 
      9 O2         31.7010   80.8030   29.2930 O.co2     1 IMO1601     0.0000 
     10 O3         29.5730   80.3450   27.9900 O.co2     1 IMO1601     0.0000 
     11 PA         33.6190   89.5110   24.9160 P.3       1 IMO1601     0.0000 
     12 O1A        33.2400   90.1210   26.2420 O.co2     1 IMO1601     0.0000 
     13 O2A        34.6440   90.3220   24.1310 O.co2     1 IMO1601     0.0000 
     14 O3A        34.0790   88.0810   25.1120 O.co2     1 IMO1601     0.0000 
     15 O5'        32.2910   89.5050   23.9850 O.3       1 IMO1601     0.0000 
     16 O4'        31.0100   86.9610   22.9770 O.3       1 IMO1601     0.0000 
     17 N9         30.3130   85.9690   24.9180 N.pl3     1 IMO1601     0.0000 
     18 C4         29.5650   85.0040   25.5420 C.ar      1 IMO1601     0.0000 
     19 N3         28.2460   84.6680   25.3110 N.ar      1 IMO1601     0.0000 
     20 N1         28.5810   82.9860   27.0490 N.ar      1 IMO1601     0.0000 
     21 C6         29.9000   83.3420   27.2350 C.ar      1 IMO1601     0.0000 
     22 O6         30.7140   82.6460   27.8650 O.3       1 IMO1601     0.0000 
     23 C5         30.4350   84.4130   26.4700 C.ar      1 IMO1601     0.0000 
     24 N7         31.6870   85.0080   26.4340 N.2       1 IMO1601     0.0000 
     25 C8         31.5690   85.9190   25.5060 C.2       1 IMO1601     0.0000 
     26 O2'        28.1780   88.3840   24.6110 O.3       1 IMO1601     0.0000 
     27 O3'        28.6940   88.6970   21.9060 O.3       1 IMO1601     0.0000 
     28 H          26.8065   83.3327   26.0072 H         1 IMO1601     0.0000 
     29 H          29.0630   86.4257   23.2883 H         1 IMO1601     0.0000 
     30 H          30.2394   88.6526   24.8691 H         1 IMO1601     0.0000 
     31 H          29.9733   89.9699   22.9770 H         1 IMO1601     0.0000 
     32 H          30.9019   88.1192   21.2617 H         1 IMO1601     0.0000 
     33 H          32.4020   89.8092   21.8995 H         1 IMO1601     0.0000 
     34 H          33.1350   88.3006   22.4713 H         1 IMO1601     0.0000 
     35 H          32.2957   86.5471   25.2135 H         1 IMO1601     0.0000 
     36 H          27.6518   88.0260   23.8396 H         1 IMO1601     0.0000 
     37 H          29.0148   89.0788   21.0392 H         1 IMO1601     0.0000 
@<TRIPOS>BOND
     1    2    1 ar   
     2    9    1 ar   
     3   10    1 ar   
     4   22    1 1    
     5   19    3 ar   
     6   20    3 ar   
     7   28    3 1    
     8    5    4 1    
     9   16    4 1    
    10   17    4 1    
    11   29    4 1    
    12    6    5 1    
    13   26    5 1    
    14   30    5 1    
    15    7    6 1    
    16   27    6 1    
    17   31    6 1    
    18    8    7 1    
    19   16    7 1    
    20   32    7 1    
    21   15    8 1    
    22   33    8 1    
    23   34    8 1    
    24   12   11 ar   
    25   13   11 ar   
    26   14   11 ar   
    27   15   11 1    
    28   18   17 1    
    29   25   17 1    
    30   19   18 ar   
    31   23   18 ar   
    32   21   20 ar   
    33   22   21 1    
    34   23   21 ar   
    35   24   23 1    
    36   25   24 2    
    37   35   25 1    
    38   36   26 1    
    39   37   27 1    
@<TRIPOS>SUBSTRUCTURE
     1 IMO1601     1 GROUP   
@<TRIPOS>SET

