#    Name: 3oq6_NAJ_3_INTS_M
#    Modification time : Tue Mar 25 05:02:35 2014

@<TRIPOS>MOLECULE
3oq6_NAJ_3_INTS_M
  107     0    12     0     0
SMALL
NO_CHARGES


@<TRIPOS>ATOM
      1 NZ         32.2905   -5.4395  -39.1380 N.4       3 LYC4        0.0000 
      2 NZ         31.8270   -4.2250  -38.5770 N.4      11 LYL4        0.0000 
      3 NZ         34.0330   -6.4120  -39.9220 N.4       7 LYP4        0.0000 
      4 N          32.2905   -5.4395  -39.1380 N.am      2 SEC2        0.0000 
      5 N          31.8270   -4.2250  -38.5770 N.am     10 SEL2        0.0000 
      6 N          32.7540   -6.6540  -39.6990 N.am      6 SEP2        0.0000 
      7 N          33.1600   -4.7070  -39.1385 N.am      2 SEC2        0.0000 
      8 N          34.4930   -5.1890  -39.7000 N.am      6 SEP2        0.0000 
      9 CA         30.7615   -1.5915  -33.5000 C.3       4 GLC5        0.0000 
     10 CA         31.7830   -2.1640  -35.0490 C.3      12 GLL5        0.0000 
     11 CA         29.7400   -1.0190  -31.9510 C.3       8 GLP5        0.0000 
     12 O          32.6170    0.5405  -34.6465 O.2       1 ALC1        0.0000 
     13 O          32.7300   -0.0710  -35.8510 O.2       9 ALL1        0.0000 
     14 O          32.5040    1.1520  -33.4420 O.2       5 ALP1        0.0000 
     15 O          34.9175    0.1395  -33.8540 O.2       1 ALC1        0.0000 
     16 O          35.1490   -0.7910  -34.7570 O.2       9 ALL1        0.0000 
     17 O          34.6860    1.0700  -32.9510 O.2       5 ALP1        0.0000 
     18 CA         31.6010   -1.5400  -32.7200 C.3       4 GLC5        0.0000 
     19 CA         33.4620   -2.0610  -33.4890 C.3      12 GLL5        0.0000 
     20 CA         32.1305   -3.1800  -32.1905 C.3       4 GLC5        0.0000 
     21 CA         30.7990   -4.2990  -30.8920 C.3       8 GLP5        0.0000 
     22 CA         36.5865   -2.1880  -29.0590 C.3       4 GLC5        0.0000 
     23 CA         35.3130   -3.6020  -29.2790 C.3      12 GLL5        0.0000 
     24 CA         37.8600   -0.7740  -28.8390 C.3       8 GLP5        0.0000 
     25 CA         34.1710   -4.5915  -27.7930 C.3       4 GLC5        0.0000 
     26 CA         33.0290   -5.5810  -26.3070 C.3       8 GLP5        0.0000 
     27 CA         33.7945    0.0940  -29.7000 C.3       4 GLC5        0.0000 
     28 CA         33.8420   -1.6760  -29.2010 C.3      12 GLL5        0.0000 
     29 CA         33.7470    1.8640  -30.1990 C.3       8 GLP5        0.0000 
     30 CA         35.8510   -1.2250  -29.0200 C.3       4 GLC5        0.0000 
     31 CA         32.6620   -2.8625  -29.3785 C.3       4 GLC5        0.0000 
     32 CA         31.4820   -4.0490  -29.5560 C.3       8 GLP5        0.0000 
     33 NZ         26.8960   -3.9785  -41.0075 N.4       3 LYC4        0.0000 
     34 NZ         27.4920   -4.7210  -39.9620 N.4      11 LYL4        0.0000 
     35 NZ         25.2400   -3.5040  -42.7930 N.4       7 LYP4        0.0000 
     36 N          27.9515   -5.8940  -40.9870 N.am      2 SEC2        0.0000 
     37 N          27.4920   -4.7210  -39.9620 N.am     10 SEL2        0.0000 
     38 N          28.4110   -7.0670  -42.0120 N.am      6 SEP2        0.0000 
     39 N          26.8960   -3.9785  -41.0075 N.am      2 SEC2        0.0000 
     40 N          26.3000   -3.2360  -42.0530 N.am      6 SEP2        0.0000 
     41 N          26.0875   -2.2645  -38.0825 N.am      2 SEC2        0.0000 
     42 N          27.2940   -3.1440  -37.9210 N.am     10 SEL2        0.0000 
     43 N          24.8810   -1.3850  -38.2440 N.am      6 SEP2        0.0000 
     44 N          27.4325   -2.5415  -36.7015 N.am      2 SEC2        0.0000 
     45 N          27.5710   -1.9390  -35.4820 N.am      6 SEP2        0.0000 
     46 CA         25.7860   -4.5265  -36.6805 C.3       4 GLC5        0.0000 
     47 CA         27.6210   -5.6670  -36.2780 C.3      12 GLL5        0.0000 
     48 CA         23.9510   -3.3860  -37.0830 C.3       8 GLP5        0.0000 
     49 CA         26.2865   -4.6525  -34.9305 C.3       4 GLC5        0.0000 
     50 CA         24.9520   -3.6380  -33.5830 C.3       8 GLP5        0.0000 
     51 CA         29.4425   -8.0780  -37.8140 C.3       4 GLC5        0.0000 
     52 CA         28.1040   -8.1940  -36.4470 C.3      12 GLL5        0.0000 
     53 CA         30.7810   -7.9620  -39.1810 C.3       8 GLP5        0.0000 
     54 N          29.2610  -10.2210  -36.4470 N.am      2 SEC2        0.0000 
     55 N          28.5080   -9.2230  -35.5600 N.am     10 SEL2        0.0000 
     56 N          30.0140  -11.2190  -37.3340 N.am      6 SEP2        0.0000 
     57 N          27.6760  -10.1470  -34.6530 N.am      2 SEC2        0.0000 
     58 N          26.8440  -11.0710  -33.7460 N.am      6 SEP2        0.0000 
     59 O          29.3705   -8.5635  -34.7645 O.2       1 ALC1        0.0000 
     60 O          28.5080   -9.2230  -35.5600 O.2       9 ALL1        0.0000 
     61 O          30.2330   -7.9040  -33.9690 O.2       5 ALP1        0.0000 
     62 CA         28.3735   -7.9960  -38.6525 C.3       4 GLC5        0.0000 
     63 CA         27.0090   -8.7750  -37.3240 C.3      12 GLL5        0.0000 
     64 CA         29.7380   -7.2170  -39.9810 C.3       8 GLP5        0.0000 
     65 CA         28.2450  -10.4785  -37.7360 C.3       4 GLC5        0.0000 
     66 CA         29.4810  -12.1820  -38.1480 C.3       8 GLP5        0.0000 
     67 N          26.4265  -10.4625  -38.7560 N.am      2 SEC2        0.0000 
     68 N          27.2170  -10.1110  -37.7450 N.am     10 SEL2        0.0000 
     69 N          25.6360  -10.8140  -39.7670 N.am      6 SEP2        0.0000 
     70 CA         25.9925   -8.8090  -34.5310 C.3       4 GLC5        0.0000 
     71 CA         25.7780   -8.5700  -36.4510 C.3      12 GLL5        0.0000 
     72 CA         26.2070   -9.0480  -32.6110 C.3       8 GLP5        0.0000 
     73 CA         24.4370  -10.8500  -36.2280 C.3       4 GLC5        0.0000 
     74 CA         23.4300   -9.1860  -36.4960 C.3      12 GLL5        0.0000 
     75 CA         25.4440  -12.5140  -35.9600 C.3       8 GLP5        0.0000 
     76 N          18.5400   -9.8885  -36.8275 N.am      2 SEC2        0.0000 
     77 N          19.9260   -9.9650  -36.8960 N.am     10 SEL2        0.0000 
     78 N          17.1540   -9.8120  -36.7590 N.am      6 SEP2        0.0000 
     79 O          22.3780   -9.6200  -34.2175 O.2       1 ALC1        0.0000 
     80 O          21.1560   -9.9650  -34.9410 O.2       9 ALL1        0.0000 
     81 O          23.6000   -9.2750  -33.4940 O.2       5 ALP1        0.0000 
     82 O          20.1530  -10.3225  -33.9770 O.2       1 ALC1        0.0000 
     83 O          19.1500  -10.6800  -33.0130 O.2       5 ALP1        0.0000 
     84 CA         36.2320   -2.0958  -31.1545 C.3       4 GLC5        0.0000 
     85 CA         34.2610   -2.6130  -31.2120 C.3      12 GLL5        0.0000 
     86 CA         37.7830   -1.0880  -31.3580 C.3       8 GLP5        0.0000 
     87 CA         35.1540   -5.6975  -29.8182 C.3       4 GLC5        0.0000 
     88 CA         35.1010   -3.5940  -30.6900 C.3      12 GLL5        0.0000 
     89 CA         35.1010   -7.7970  -29.6520 C.3       8 GLP5        0.0000 
     90 CA         33.1080   -3.5773  -30.0771 C.3       4 GLC5        0.0000 
     91 CA         28.6715   -6.2320  -34.2257 C.3       4 GLC5        0.0000 
     92 CA         29.8440   -6.1060  -32.4490 C.3       8 GLP5        0.0000 
     93 CA         26.9738   -8.3347  -34.3490 C.3       4 GLC5        0.0000 
     94 CA         27.3770   -7.0490  -35.7270 C.3      12 GLL5        0.0000 
     95 CA         25.9187  -10.5933  -36.4237 C.3       4 GLC5        0.0000 
     96 CA         22.4053   -7.8310  -35.1578 C.3       4 GLC5        0.0000 
     97 CA         22.0290   -6.5290  -33.5860 C.3       8 GLP5        0.0000 
     98 CA         21.8005   -7.8520  -39.9520 C.3       4 GLC5        0.0000 
     99 CA         21.8960   -8.3060  -38.1330 C.3      12 GLL5        0.0000 
    100 CA         21.1650   -7.7480  -41.4790 C.3       8 GLP5        0.0000 
    101 CA         24.3933   -7.6505  -40.1382 C.3       4 GLC5        0.0000 
    102 CA         22.9760   -7.6060  -38.7170 C.3      12 GLL5        0.0000 
    103 CA         25.1850   -7.6570  -41.8360 C.3       8 GLP5        0.0000 
    104 CA         21.1456   -7.2712  -37.2237 C.3       4 GLC5        0.0000 
    105 CA         19.7960   -6.3930  -36.3150 C.3       8 GLP5        0.0000 
    106 CA         23.7912   -5.8830  -38.4248 C.3       4 GLC5        0.0000 
    107 CA         23.9810   -4.1220  -38.4090 C.3       8 GLP5        0.0000 
@<TRIPOS>BOND
@<TRIPOS>SUBSTRUCTURE
     1 ALC1       12 GROUP        1 X    ALC  0     ROOT ALC X 1
     2 SEC2        4 GROUP        1 X    SEC  0     **** SEC X 2
     3 LYC4        1 GROUP        1 X    LYC  0     **** LYC X 4
     4 GLC5        9 GROUP        1 X    GLC  0     **** GLC X 6
     5 ALP1       14 GROUP        1 Y    ALP  0     ROOT ALP Y 8
     6 SEP2        6 GROUP        1 Y    SEP  0     **** SEP Y 9
     7 LYP4        3 GROUP        1 Y    LYP  0     **** LYP Y 11
     8 GLP5       11 GROUP        1 Y    GLP  0     **** GLP Y 13
     9 ALL1       13 GROUP        1 Z    ALL  0     ROOT ALL Z 15
    10 SEL2        5 GROUP        1 Z    SEL  0     **** SEL Z 16
    11 LYL4        2 GROUP        1 Z    LYL  0     **** LYL Z 18
    12 GLL5       10 GROUP        1 Z    GLL  0     **** GLL Z 20
@<TRIPOS>SET

