#    Name: 3oq6_NAJ_3_ligand
#    Modification time : Tue Mar 25 05:02:35 2014

@<TRIPOS>MOLECULE
3oq6_NAJ_3_ligand
   71    75     1     0     0
SMALL
NO_CHARGES


@<TRIPOS>ATOM
      1 PA         30.5710   -3.4460  -38.4210 P.3       1 NAJ377      0.0000 
      2 O1A        31.8270   -4.2250  -38.5770 O.co2     1 NAJ377      0.0000 
      3 O2A        30.2470   -2.4090  -39.4260 O.co2     1 NAJ377      0.0000 
      4 O5B        30.5680   -2.7090  -37.0350 O.3       1 NAJ377      0.0000 
      5 C5B        31.1410   -3.2820  -35.8220 C.3       1 NAJ377      0.0000 
      6 C4B        31.7830   -2.1640  -35.0490 C.3       1 NAJ377      0.0000 
      7 O4B        32.2890   -2.7440  -33.8400 O.3       1 NAJ377      0.0000 
      8 C3B        32.9520   -1.4500  -35.7300 C.3       1 NAJ377      0.0000 
      9 O3B        32.7300   -0.0710  -35.8510 O.3       1 NAJ377      0.0000 
     10 C2B        34.1470   -1.7750  -34.8270 C.3       1 NAJ377      0.0000 
     11 O2B        35.1490   -0.7910  -34.7570 O.3       1 NAJ377      0.0000 
     12 C1B        33.4620   -2.0610  -33.4890 C.3       1 NAJ377      0.0000 
     13 N9A        34.2350   -2.8480  -32.5590 N.pl3     1 NAJ377      0.0000 
     14 C8A        35.0300   -3.9180  -32.8200 C.2       1 NAJ377      0.0000 
     15 N7A        35.5640   -4.4080  -31.7020 N.2       1 NAJ377      0.0000 
     16 C5A        35.1010   -3.5940  -30.6900 C.ar      1 NAJ377      0.0000 
     17 C6A        35.3130   -3.6020  -29.2790 C.ar      1 NAJ377      0.0000 
     18 N6A        36.1050   -4.4400  -28.6500 N.pl3     1 NAJ377      0.0000 
     19 N1A        34.6530   -2.5900  -28.6450 N.pl3     1 NAJ377      0.0000 
     20 C2A        33.8420   -1.6760  -29.2010 C.ar      1 NAJ377      0.0000 
     21 N3A        33.6330   -1.6300  -30.5130 N.ar      1 NAJ377      0.0000 
     22 C4A        34.2610   -2.6130  -31.2120 C.ar      1 NAJ377      0.0000 
     23 O3         29.3970   -4.4920  -38.3100 O.3       1 NAJ377      0.0000 
     24 PN         27.8040   -4.4000  -38.5630 P.3       1 NAJ377      0.0000 
     25 O1N        27.4920   -4.7210  -39.9620 O.co2     1 NAJ377      0.0000 
     26 O2N        27.2940   -3.1440  -37.9210 O.co2     1 NAJ377      0.0000 
     27 O5D        27.3820   -5.6550  -37.7060 O.3       1 NAJ377      0.0000 
     28 C5D        27.6210   -5.6670  -36.2780 C.3       1 NAJ377      0.0000 
     29 C4D        27.3770   -7.0490  -35.7270 C.3       1 NAJ377      0.0000 
     30 O4D        25.9750   -7.3410  -35.7970 O.3       1 NAJ377      0.0000 
     31 C3D        28.1040   -8.1940  -36.4470 C.3       1 NAJ377      0.0000 
     32 O3D        28.5080   -9.2230  -35.5600 O.3       1 NAJ377      0.0000 
     33 C2D        27.0090   -8.7750  -37.3240 C.3       1 NAJ377      0.0000 
     34 O2D        27.2170  -10.1110  -37.7450 O.3       1 NAJ377      0.0000 
     35 C1D        25.7780   -8.5700  -36.4510 C.3       1 NAJ377      0.0000 
     36 N1N        24.4680   -8.5370  -37.1030 N.pl3     1 NAJ377      0.0000 
     37 C2N        23.4300   -9.1860  -36.4960 C.ar      1 NAJ377      0.0000 
     38 C3N        22.1330   -9.0800  -36.9630 C.ar      1 NAJ377      0.0000 
     39 C7N        21.0020   -9.6990  -36.2460 C.2       1 NAJ377      0.0000 
     40 O7N        19.9260   -9.9650  -36.8960 O.2       1 NAJ377      0.0000 
     41 N7N        21.1560   -9.9650  -34.9410 N.am      1 NAJ377      0.0000 
     42 C4N        21.8960   -8.3060  -38.1330 C.ar      1 NAJ377      0.0000 
     43 C5N        22.9760   -7.6060  -38.7170 C.ar      1 NAJ377      0.0000 
     44 C6N        24.2270   -7.6820  -38.1640 C.ar      1 NAJ377      0.0000 
     45 H          31.8957   -4.0248  -36.0642 H         1 NAJ377      0.0000 
     46 H          30.3701   -3.7400  -35.2090 H         1 NAJ377      0.0000 
     47 H          31.0288   -1.4262  -34.7955 H         1 NAJ377      0.0000 
     48 H          33.1217   -1.9483  -36.6696 H         1 NAJ377      0.0000 
     49 H          34.5232   -2.7497  -35.1733 H         1 NAJ377      0.0000 
     50 H          33.2003   -1.0934  -33.0586 H         1 NAJ377      0.0000 
     51 H          35.1831   -4.2754  -33.7258 H         1 NAJ377      0.0000 
     52 H          36.5476   -5.1359  -29.2156 H         1 NAJ377      0.0000 
     53 H          36.1931   -4.3056  -27.6630 H         1 NAJ377      0.0000 
     54 H          34.8067   -2.5232  -27.5672 H         1 NAJ377      0.0000 
     55 H          33.3581   -0.9748  -28.5723 H         1 NAJ377      0.0000 
     56 H          26.9556   -4.9638  -35.7631 H         1 NAJ377      0.0000 
     57 H          28.6542   -5.3784  -36.0509 H         1 NAJ377      0.0000 
     58 H          27.6883   -7.0722  -34.6779 H         1 NAJ377      0.0000 
     59 H          28.8519   -7.8085  -37.0551 H         1 NAJ377      0.0000 
     60 H          26.8947   -8.0763  -38.1645 H         1 NAJ377      0.0000 
     61 H          25.7888   -9.3677  -35.6870 H         1 NAJ377      0.0000 
     62 H          23.6143   -9.7803  -35.6555 H         1 NAJ377      0.0000 
     63 H          22.0177   -9.6674  -34.5300 H         1 NAJ377      0.0000 
     64 H          20.3954  -10.4372  -34.4954 H         1 NAJ377      0.0000 
     65 H          20.9703   -8.2603  -38.5361 H         1 NAJ377      0.0000 
     66 H          22.8021   -7.0421  -39.5609 H         1 NAJ377      0.0000 
     67 H          24.9976   -7.1013  -38.5361 H         1 NAJ377      0.0000 
     68 H          32.6890    0.2679  -34.9111 H         1 NAJ377      0.0000 
     69 H          34.8552   -0.1741  -34.0268 H         1 NAJ377      0.0000 
     70 H          29.4326   -8.9703  -35.2746 H         1 NAJ377      0.0000 
     71 H          27.9321  -10.0544  -38.4417 H         1 NAJ377      0.0000 
@<TRIPOS>BOND
     1    2    1 ar   
     2    3    1 ar   
     3    4    1 1    
     4   23    1 1    
     5    5    4 1    
     6    6    5 1    
     7   45    5 1    
     8   46    5 1    
     9    7    6 1    
    10    8    6 1    
    11   47    6 1    
    12   12    7 1    
    13    9    8 1    
    14   10    8 1    
    15   48    8 1    
    16   68    9 1    
    17   11   10 1    
    18   12   10 1    
    19   49   10 1    
    20   69   11 1    
    21   13   12 1    
    22   50   12 1    
    23   14   13 1    
    24   22   13 1    
    25   15   14 2    
    26   51   14 1    
    27   16   15 1    
    28   17   16 ar   
    29   22   16 ar   
    30   18   17 1    
    31   19   17 ar   
    32   52   18 1    
    33   53   18 1    
    34   20   19 ar   
    35   54   19 1    
    36   21   20 ar   
    37   55   20 1    
    38   22   21 ar   
    39   24   23 1    
    40   25   24 ar   
    41   26   24 ar   
    42   27   24 1    
    43   28   27 1    
    44   29   28 1    
    45   56   28 1    
    46   57   28 1    
    47   30   29 1    
    48   31   29 1    
    49   58   29 1    
    50   35   30 1    
    51   32   31 1    
    52   33   31 1    
    53   59   31 1    
    54   70   32 1    
    55   34   33 1    
    56   35   33 1    
    57   60   33 1    
    58   71   34 1    
    59   36   35 1    
    60   61   35 1    
    61   37   36 ar   
    62   44   36 ar   
    63   38   37 ar   
    64   62   37 1    
    65   39   38 1    
    66   42   38 ar   
    67   40   39 2    
    68   41   39 am   
    69   63   41 1    
    70   64   41 1    
    71   43   42 ar   
    72   65   42 1    
    73   44   43 ar   
    74   66   43 1    
    75   67   44 1    
@<TRIPOS>SUBSTRUCTURE
     1 NAJ377      1 GROUP   
@<TRIPOS>SET

