#    Name: 4e99_P8S_2_INTS_M
#    Modification time : Tue Mar 25 10:46:19 2014

@<TRIPOS>MOLECULE
4e99_P8S_2_INTS_M
   76     0     3     0     0
SMALL
NO_CHARGES


@<TRIPOS>ATOM
      1 CA        -19.0195  -10.5935   13.1170 C.3       1 GLC5        0.0000 
      2 CA        -18.2110  -12.3770   14.1580 C.3       3 GLL5        0.0000 
      3 CA        -19.8280   -8.8100   12.0760 C.3       2 GLP5        0.0000 
      4 CA        -18.0925  -14.7270   17.6865 C.3       1 GLC5        0.0000 
      5 CA        -18.4150  -13.8960   15.7350 C.3       3 GLL5        0.0000 
      6 CA        -17.7700  -15.5580   19.6380 C.3       2 GLP5        0.0000 
      7 CA        -20.2300  -14.3010   16.0230 C.3       1 GLC5        0.0000 
      8 CA        -22.0450  -14.7060   16.3110 C.3       2 GLP5        0.0000 
      9 CA        -20.2395  -10.4130   16.1800 C.3       1 GLC5        0.0000 
     10 CA        -19.0810  -11.8950   16.0180 C.3       3 GLL5        0.0000 
     11 CA        -21.3980   -8.9310   16.3420 C.3       2 GLP5        0.0000 
     12 CA        -20.4020  -12.6420   17.2220 C.3       1 GLC5        0.0000 
     13 CA        -21.7230  -13.3890   18.4260 C.3       2 GLP5        0.0000 
     14 CA        -16.3950   -9.2300   16.0415 C.3       1 GLC5        0.0000 
     15 CA        -16.2270  -11.2150   15.4570 C.3       3 GLL5        0.0000 
     16 CA        -16.5630   -7.2450   16.6260 C.3       2 GLP5        0.0000 
     17 CA        -15.0640   -9.6320   14.5075 C.3       1 GLC5        0.0000 
     18 CA        -13.9010   -8.0490   13.5580 C.3       2 GLP5        0.0000 
     19 CA        -17.2320   -9.0530   17.1140 C.3       1 GLC5        0.0000 
     20 CA        -17.9010  -10.8610   17.6020 C.3       3 GLL5        0.0000 
     21 CA        -19.6495   -9.8960   16.9720 C.3       1 GLC5        0.0000 
     22 CA        -19.6785  -13.1535   18.2670 C.3       1 GLC5        0.0000 
     23 CA        -17.6340  -12.9180   18.1080 C.3       3 GLL5        0.0000 
     24 CA        -13.6690  -13.4535   19.5250 C.3       1 GLC5        0.0000 
     25 CA        -15.0850  -12.6730   18.4810 C.3       3 GLL5        0.0000 
     26 CA        -12.2530  -14.2340   20.5690 C.3       2 GLP5        0.0000 
     27 CA        -16.4275  -14.1155   19.0595 C.3       1 GLC5        0.0000 
     28 CA        -14.0215   -9.5075   18.7115 C.3       1 GLC5        0.0000 
     29 CA        -15.0830  -10.7400   17.5490 C.3       3 GLL5        0.0000 
     30 CA        -12.9600   -8.2750   19.8740 C.3       2 GLP5        0.0000 
     31 CA        -15.8230   -8.9925   17.0875 C.3       1 GLC5        0.0000 
     32 CA        -13.5750  -10.5390   18.0895 C.3       1 GLC5        0.0000 
     33 CA        -14.7450  -10.2850   19.8220 C.3       3 GLL5        0.0000 
     34 CA        -12.4050  -10.7930   16.3570 C.3       2 GLP5        0.0000 
     35 CA        -15.2210   -8.4315   20.8825 C.3       1 GLC5        0.0000 
     36 CA        -15.6970   -6.5780   21.9430 C.3       2 GLP5        0.0000 
     37 CA        -16.6690   -8.5560   18.1120 C.3       1 GLC5        0.0000 
     38 CA        -16.7750   -9.8670   19.5980 C.3       3 GLL5        0.0000 
     39 CA        -16.2360   -8.2225   20.7705 C.3       1 GLC5        0.0000 
     40 CA        -13.8245  -13.4945   20.7650 C.3       1 GLC5        0.0000 
     41 CA        -15.3960  -12.7550   20.9610 C.3       3 GLL5        0.0000 
     42 CA        -16.5830  -14.1565   20.2995 C.3       1 GLC5        0.0000 
     43 CA        -18.3665   -9.8730   21.3180 C.3       1 GLC5        0.0000 
     44 CA        -16.9640  -10.3550   22.7390 C.3       3 GLL5        0.0000 
     45 CA        -19.7690   -9.3910   19.8970 C.3       2 GLP5        0.0000 
     46 CA        -16.8705   -8.8490   24.3755 C.3       1 GLC5        0.0000 
     47 CA        -16.7770   -7.3430   26.0120 C.3       2 GLP5        0.0000 
     48 CA        -17.0835  -13.2570   24.3180 C.3       1 GLC5        0.0000 
     49 CA        -15.7280  -12.6850   23.5530 C.3       3 GLL5        0.0000 
     50 CA        -18.4390  -13.8290   25.0830 C.3       2 GLP5        0.0000 
     51 CA        -13.1080  -13.1620   21.5795 C.3       1 GLC5        0.0000 
     52 CA        -13.9630  -12.0900   22.5900 C.3       3 GLL5        0.0000 
     53 CA        -14.6750  -11.5475   15.3879 C.3       1 GLC5        0.0000 
     54 CA        -13.0510  -11.1260   15.0300 C.3       2 GLP5        0.0000 
     55 CA        -17.5587  -13.9772   18.7353 C.3       1 GLC5        0.0000 
     56 CA        -17.0610  -11.8750   17.5570 C.3       3 GLL5        0.0000 
     57 CA        -18.6632  -10.7670   18.8704 C.3       1 GLC5        0.0000 
     58 CA        -13.8304  -11.1103   17.1664 C.3       1 GLC5        0.0000 
     59 CA        -18.0562   -9.8715   19.7642 C.3       1 GLC5        0.0000 
     60 CA        -15.9120  -10.8370   19.6650 C.3       3 GLL5        0.0000 
     61 CA        -14.5059   -9.2445   19.7724 C.3       1 GLC5        0.0000 
     62 CA        -17.8597  -13.3942   20.7123 C.3       1 GLC5        0.0000 
     63 CA        -16.1710  -11.6600   20.9310 C.3       3 GLL5        0.0000 
     64 CA        -18.9110  -14.9630   20.4800 C.3       2 GLP5        0.0000 
     65 CA        -18.0757  -11.9422   22.2413 C.3       1 GLC5        0.0000 
     66 CA        -17.4460  -11.9910   20.9580 C.3       3 GLL5        0.0000 
     67 CA        -19.3430  -12.0590   23.5380 C.3       2 GLP5        0.0000 
     68 CA        -18.2888  -10.6082   20.4207 C.3       1 GLC5        0.0000 
     69 CA        -14.0105   -9.5800   21.6025 C.3       1 GLC5        0.0000 
     70 CA        -15.8700  -10.8240   22.1830 C.3       3 GLL5        0.0000 
     71 CA        -12.4970   -8.8630   21.1930 C.3       2 GLP5        0.0000 
     72 CA        -15.7473   -8.3789   22.0470 C.3       1 GLC5        0.0000 
     73 CA        -15.1780   -9.7700   21.8410 C.3       3 GLL5        0.0000 
     74 CA        -13.5023  -10.3640   22.0368 C.3       1 GLC5        0.0000 
     75 CA        -15.0520  -11.6400   23.1710 C.3       3 GLL5        0.0000 
     76 CA        -17.5388  -11.5869   23.1770 C.3       1 GLC5        0.0000 
@<TRIPOS>BOND
@<TRIPOS>SUBSTRUCTURE
     1 GLC5        1 GROUP        1 X    GLC  0     ROOT GLC X 6
     2 GLP5        3 GROUP        1 Y    GLP  0     ROOT GLP Y 13
     3 GLL5        2 GROUP        1 Z    GLL  0     ROOT GLL Z 20
@<TRIPOS>SET

