#    Name: 4e99_P8S_2_ligand
#    Modification time : Tue Mar 25 10:46:19 2014

@<TRIPOS>MOLECULE
4e99_P8S_2_ligand
   29    28     1     0     0
SMALL
NO_CHARGES


@<TRIPOS>ATOM
      1 F8C       -18.2110  -12.3770   14.1580 F         1 P8S602      0.0000 
      2 C8        -18.1470  -12.6220   15.4600 C.3       1 P8S602      0.0000 
      3 F8A       -18.4150  -13.8960   15.7350 F         1 P8S602      0.0000 
      4 F8B       -19.0810  -11.8950   16.0180 F         1 P8S602      0.0000 
      5 C7        -16.7980  -12.2260   16.0820 C.3       1 P8S602      0.0000 
      6 F7A       -15.9440  -13.2200   15.9870 F         1 P8S602      0.0000 
      7 F7B       -16.2270  -11.2150   15.4570 F         1 P8S602      0.0000 
      8 C6        -17.0610  -11.8750   17.5570 C.3       1 P8S602      0.0000 
      9 F6A       -17.9010  -10.8610   17.6020 F         1 P8S602      0.0000 
     10 F6B       -17.6340  -12.9180   18.1080 F         1 P8S602      0.0000 
     11 C5        -15.7720  -11.5570   18.3240 C.3       1 P8S602      0.0000 
     12 F5B       -15.0850  -12.6730   18.4810 F         1 P8S602      0.0000 
     13 F5A       -15.0830  -10.7400   17.5490 F         1 P8S602      0.0000 
     14 C4        -15.9120  -10.8370   19.6650 C.3       1 P8S602      0.0000 
     15 F4A       -14.7450  -10.2850   19.8220 F         1 P8S602      0.0000 
     16 F4B       -16.7750   -9.8670   19.5980 F         1 P8S602      0.0000 
     17 C3        -16.1710  -11.6600   20.9310 C.3       1 P8S602      0.0000 
     18 F3B       -15.3960  -12.7550   20.9610 F         1 P8S602      0.0000 
     19 F3A       -17.4460  -11.9910   20.9580 F         1 P8S602      0.0000 
     20 C2        -15.8700  -10.8240   22.1830 C.3       1 P8S602      0.0000 
     21 F2A       -16.9640  -10.3550   22.7390 F         1 P8S602      0.0000 
     22 F2B       -15.1780   -9.7700   21.8410 F         1 P8S602      0.0000 
     23 C1        -15.0520  -11.6400   23.1710 C.3       1 P8S602      0.0000 
     24 F1B       -15.7280  -12.6850   23.5530 F         1 P8S602      0.0000 
     25 F1A       -13.9630  -12.0900   22.5900 F         1 P8S602      0.0000 
     26 S1        -14.6690  -10.7350   24.4990 S.o2      1 P8S602      0.0000 
     27 O3        -14.0870   -9.4490   24.0320 O.co2     1 P8S602      0.0000 
     28 O1        -13.6810  -11.4230   25.3830 O.co2     1 P8S602      0.0000 
     29 O2        -15.9130  -10.4860   25.2710 O.co2     1 P8S602      0.0000 
@<TRIPOS>BOND
     1    2    1 1    
     2    3    2 1    
     3    4    2 1    
     4    5    2 1    
     5    6    5 1    
     6    7    5 1    
     7    8    5 1    
     8    9    8 1    
     9   10    8 1    
    10   11    8 1    
    11   12   11 1    
    12   13   11 1    
    13   14   11 1    
    14   15   14 1    
    15   16   14 1    
    16   17   14 1    
    17   18   17 1    
    18   19   17 1    
    19   20   17 1    
    20   21   20 1    
    21   22   20 1    
    22   23   20 1    
    23   24   23 1    
    24   25   23 1    
    25   26   23 1    
    26   27   26 ar   
    27   28   26 ar   
    28   29   26 ar   
@<TRIPOS>SUBSTRUCTURE
     1 P8S602      1 GROUP   
@<TRIPOS>SET

