#    Name: 4kgd_TDP_1_INTS_M
#    Modification time : Tue Mar 25 07:52:45 2014

@<TRIPOS>MOLECULE
4kgd_TDP_1_INTS_M
   72     0    12     0     0
SMALL
NO_CHARGES


@<TRIPOS>ATOM
      1 CA         77.6100   66.4275   -0.1995 C.3       4 GLC5        0.0000 
      2 CA         75.9550   67.3500   -0.3760 C.3      12 GLL5        0.0000 
      3 CA         79.2650   65.5050   -0.0230 C.3       8 GLP5        0.0000 
      4 CA         77.7815   68.1830   -1.1125 C.3       4 GLC5        0.0000 
      5 CA         79.6080   69.0160   -1.8490 C.3       8 GLP5        0.0000 
      6 CA         77.5605   67.9520    1.0760 C.3       4 GLC5        0.0000 
      7 CA         76.0830   68.7940   -0.0590 C.3      12 GLL5        0.0000 
      8 CA         79.0380   67.1100    2.2110 C.3       8 GLP5        0.0000 
      9 CA         77.8970   69.2820   -0.1410 C.3       4 GLC5        0.0000 
     10 CA         79.7110   69.7700   -0.2230 C.3       8 GLP5        0.0000 
     11 N          76.3925   66.8220    2.0855 N.am      2 SEC2        0.0000 
     12 N          75.7380   66.4630    0.5950 N.am     10 SEL2        0.0000 
     13 N          77.0470   67.1810    3.5760 N.am      6 SEP2        0.0000 
     14 O          74.9670   64.5555    2.5425 O.2       1 ALC1        0.0000 
     15 O          75.3090   64.2620    1.2540 O.2       9 ALL1        0.0000 
     16 O          74.6250   64.8490    3.8310 O.2       5 ALP1        0.0000 
     17 CA         77.5880   64.3625   -0.7310 C.3       4 GLC5        0.0000 
     18 CA         75.9110   63.2200   -1.4390 C.3      12 GLL5        0.0000 
     19 CA         76.6780   61.2800   -2.0920 C.3       4 GLC5        0.0000 
     20 CA         77.4450   59.3400   -2.7450 C.3       8 GLP5        0.0000 
     21 CA         79.7540   60.6095    2.0660 C.3       4 GLC5        0.0000 
     22 CA         78.5880   61.1450    0.6320 C.3      12 GLL5        0.0000 
     23 CA         80.9200   60.0740    3.5000 C.3       8 GLP5        0.0000 
     24 CA         79.4905   59.4210    0.4890 C.3       4 GLC5        0.0000 
     25 CA         80.3930   57.6970    0.3460 C.3       8 GLP5        0.0000 
     26 CA         80.6710   63.6735   -3.1325 C.3       4 GLC5        0.0000 
     27 CA         78.6200   63.4170   -2.7600 C.3      12 GLL5        0.0000 
     28 CA         82.7220   63.9300   -3.5050 C.3       8 GLP5        0.0000 
     29 CA         80.0015   63.6640   -0.5330 C.3       4 GLC5        0.0000 
     30 CA         80.7380   61.8230   -1.0430 C.3      12 GLL5        0.0000 
     31 CA         81.5825   61.6825   -2.6620 C.3       4 GLC5        0.0000 
     32 CA         82.4270   61.5420   -4.2810 C.3       8 GLP5        0.0000 
     33 CA         80.5655   59.7600   -0.3485 C.3       4 GLC5        0.0000 
     34 CA         79.6730   60.8500   -2.2630 C.3       4 GLC5        0.0000 
     35 CA         78.6080   59.8770   -3.4830 C.3       8 GLP5        0.0000 
     36 CA         81.2415   61.2405    1.8035 C.3       4 GLC5        0.0000 
     37 CA         81.5630   62.4070    0.1070 C.3      12 GLL5        0.0000 
     38 CA         81.2575   64.2280   -0.0225 C.3       4 GLC5        0.0000 
     39 CA         80.9520   66.0490   -0.1520 C.3       8 GLP5        0.0000 
     40 CA         82.1425   63.1685   -1.6990 C.3       4 GLC5        0.0000 
     41 Zn         86.1350   62.3750   -0.5240 Zn        3 ZIC7        0.0000 
     42 Zn         85.3710   62.9960   -0.3010 Zn       11 ZIL7        0.0000 
     43 Zn         86.8990   61.7540   -0.7470 Zn        7 ZIP7        0.0000 
     44 N          85.7125   64.3560   -0.2405 N.am      2 SEC2        0.0000 
     45 N          85.3710   62.9960   -0.3010 N.am     10 SEL2        0.0000 
     46 N          86.0540   65.7160   -0.1800 N.am      6 SEP2        0.0000 
     47 N          83.8830   65.3545    1.4440 N.am      2 SEC2        0.0000 
     48 N          83.8470   63.9380    1.4930 N.am     10 SEL2        0.0000 
     49 N          83.9190   66.7710    1.3950 N.am      6 SEP2        0.0000 
     50 Zn         86.2425   60.9630   -0.5140 Zn        3 ZIC7        0.0000 
     51 Zn         85.5860   60.1720   -0.2810 Zn       11 ZIL7        0.0000 
     52 N          86.8165   59.3820   -0.3470 N.am      2 SEC2        0.0000 
     53 N          85.5860   60.1720   -0.2810 N.am     10 SEL2        0.0000 
     54 N          88.0470   58.5920   -0.4130 N.am      6 SEP2        0.0000 
     55 N          84.9465   59.5480   -1.3415 N.am      2 SEC2        0.0000 
     56 N          84.3070   58.9240   -2.4020 N.am      6 SEP2        0.0000 
     57 N          83.1025   58.7130    2.1985 N.am      2 SEC2        0.0000 
     58 N          83.6230   59.1180    0.9000 N.am     10 SEL2        0.0000 
     59 N          82.5820   58.3080    3.4970 N.am      6 SEP2        0.0000 
     60 N          82.9890   58.2595   -0.0765 N.am      2 SEC2        0.0000 
     61 N          82.3550   57.4010   -1.0530 N.am      6 SEP2        0.0000 
     62 CA         77.5623   65.3872   -0.6184 C.3       4 GLC5        0.0000 
     63 CA         75.8400   64.6990   -1.0560 C.3      12 GLL5        0.0000 
     64 CA         77.6180   62.0907    2.3415 C.3       4 GLC5        0.0000 
     65 CA         76.9880   61.7240    0.2280 C.3      12 GLL5        0.0000 
     66 CA         77.4480   62.7470    4.2530 C.3       8 GLP5        0.0000 
     67 CA         78.5265   63.4697    0.2035 C.3       4 GLC5        0.0000 
     68 CA         77.6165   60.3873   -1.1575 C.3       4 GLC5        0.0000 
     69 CA         78.9950   64.1775   -0.9869 C.3       4 GLC5        0.0000 
     70 CA         79.2800   61.9390   -0.7850 C.3      12 GLL5        0.0000 
     71 CA         78.6665   61.3635   -2.7169 C.3       4 GLC5        0.0000 
     72 CA         78.3800   62.6270   -1.4980 C.3      12 GLL5        0.0000 
@<TRIPOS>BOND
@<TRIPOS>SUBSTRUCTURE
     1 ALC1       14 GROUP        1 X    ALC  0     ROOT ALC X 1
     2 SEC2       11 GROUP        1 X    SEC  0     **** SEC X 2
     3 ZIC7       41 GROUP        1 X    ZIC  0     **** ZIC X 5
     4 GLC5        1 GROUP        1 X    GLC  0     **** GLC X 6
     5 ALP1       16 GROUP        1 Y    ALP  0     ROOT ALP Y 8
     6 SEP2       13 GROUP        1 Y    SEP  0     **** SEP Y 9
     7 ZIP7       43 GROUP        1 Y    ZIP  0     **** ZIP Y 12
     8 GLP5        3 GROUP        1 Y    GLP  0     **** GLP Y 13
     9 ALL1       15 GROUP        1 Z    ALL  0     ROOT ALL Z 15
    10 SEL2       12 GROUP        1 Z    SEL  0     **** SEL Z 16
    11 ZIL7       42 GROUP        1 Z    ZIL  0     **** ZIL Z 19
    12 GLL5        2 GROUP        1 Z    GLL  0     **** GLL Z 20
@<TRIPOS>SET

