#    Name: 4kgd_TDP_1_ligand
#    Modification time : Tue Mar 25 07:52:45 2014

@<TRIPOS>MOLECULE
4kgd_TDP_1_ligand
   42    43     1     0     0
SMALL
NO_CHARGES


@<TRIPOS>ATOM
      1 N1'        76.0310   66.9870   -1.6580 N.ar      1 TDP704      0.0000 
      2 C2'        75.9550   67.3500   -0.3760 C.ar      1 TDP704      0.0000 
      3 C2A        76.0830   68.7940   -0.0590 C.3       1 TDP704      0.0000 
      4 N3'        75.7380   66.4630    0.5950 N.ar      1 TDP704      0.0000 
      5 C4'        75.6220   65.1250    0.2590 C.ar      1 TDP704      0.0000 
      6 N4'        75.3090   64.2620    1.2540 N.pl3     1 TDP704      0.0000 
      7 C5'        75.8400   64.6990   -1.0560 C.ar      1 TDP704      0.0000 
      8 C6'        75.9880   65.6270   -2.0290 C.ar      1 TDP704      0.0000 
      9 C35        75.9110   63.2200   -1.4390 C.3       1 TDP704      0.0000 
     10 N3         77.1110   62.5760   -0.9210 N.pl3     1 TDP704      0.0000 
     11 C2         76.9880   61.7240    0.2280 C.2       1 TDP704      0.0000 
     12 S1         78.5880   61.1450    0.6320 S.3       1 TDP704      0.0000 
     13 C5         79.2800   61.9390   -0.7850 C.2       1 TDP704      0.0000 
     14 C4         78.3800   62.6270   -1.4980 C.2       1 TDP704      0.0000 
     15 C4A        78.6200   63.4170   -2.7600 C.3       1 TDP704      0.0000 
     16 C5A        80.7380   61.8230   -1.0430 C.3       1 TDP704      0.0000 
     17 C5B        81.5630   62.4070    0.1070 C.3       1 TDP704      0.0000 
     18 O5G        82.9420   62.5410   -0.4350 O.3       1 TDP704      0.0000 
     19 P1         84.1470   62.8240    0.5470 P.3       1 TDP704      0.0000 
     20 O11        84.2380   61.4890    1.4010 O.3       1 TDP704      0.0000 
     21 O12        85.3710   62.9960   -0.3010 O.co2     1 TDP704      0.0000 
     22 O13        83.8470   63.9380    1.4930 O.co2     1 TDP704      0.0000 
     23 P2         84.8100   59.9970    1.0110 P.3       1 TDP704      0.0000 
     24 O21        85.5860   60.1720   -0.2810 O.co2     1 TDP704      0.0000 
     25 O22        83.6230   59.1180    0.9000 O.co2     1 TDP704      0.0000 
     26 O23        85.7270   59.6930    2.1960 O.co2     1 TDP704      0.0000 
     27 H          75.2073   63.3031    0.9890 H         1 TDP704      0.0000 
     28 H          75.2073   64.6599    2.1658 H         1 TDP704      0.0000 
     29 H          76.0689   65.3764   -3.0150 H         1 TDP704      0.0000 
     30 H          75.8732   63.1518   -2.5386 H         1 TDP704      0.0000 
     31 H          75.0039   62.7257   -1.0544 H         1 TDP704      0.0000 
     32 H          76.3351   61.4442    0.7424 H         1 TDP704      0.0000 
     33 H          81.0038   62.3545   -1.9647 H         1 TDP704      0.0000 
     34 H          81.0182   60.7704   -1.1707 H         1 TDP704      0.0000 
     35 H          81.5435   61.7257    0.9313 H         1 TDP704      0.0000 
     36 H          81.1643   63.3636    0.3715 H         1 TDP704      0.0000 
     37 H          76.9637   69.1628   -0.3562 H         1 TDP704      0.0000 
     38 H          75.3720   69.3368   -0.5060 H         1 TDP704      0.0000 
     39 H          76.0094   68.9665    0.9233 H         1 TDP704      0.0000 
     40 H          79.5738   63.3639   -3.0557 H         1 TDP704      0.0000 
     41 H          78.0591   63.0849   -3.5184 H         1 TDP704      0.0000 
     42 H          78.4044   64.3859   -2.6383 H         1 TDP704      0.0000 
@<TRIPOS>BOND
     1    2    1 ar   
     2    8    1 ar   
     3    3    2 1    
     4    4    2 ar   
     5   37    3 1    
     6   38    3 1    
     7   39    3 1    
     8    5    4 ar   
     9    6    5 1    
    10    7    5 ar   
    11   27    6 1    
    12   28    6 1    
    13    8    7 ar   
    14    9    7 1    
    15   29    8 1    
    16   10    9 1    
    17   30    9 1    
    18   31    9 1    
    19   11   10 2    
    20   14   10 1    
    21   12   11 1    
    22   32   11 1    
    23   13   12 1    
    24   14   13 2    
    25   16   13 1    
    26   15   14 1    
    27   40   15 1    
    28   41   15 1    
    29   42   15 1    
    30   17   16 1    
    31   33   16 1    
    32   34   16 1    
    33   18   17 1    
    34   35   17 1    
    35   36   17 1    
    36   19   18 1    
    37   20   19 1    
    38   21   19 ar   
    39   22   19 ar   
    40   23   20 1    
    41   24   23 ar   
    42   25   23 ar   
    43   26   23 ar   
@<TRIPOS>SUBSTRUCTURE
     1 TDP704      1 GROUP   
@<TRIPOS>SET

