#    Name: 3w55_1FM_1_INTS_M
#    Modification time : Tue Mar 25 02:17:31 2014

@<TRIPOS>MOLECULE
3w55_1FM_1_INTS_M
   51     0     9     0     0
SMALL
NO_CHARGES


@<TRIPOS>ATOM
      1 CA         18.5975   39.5745   46.4130 C.3       3 GLC5        0.0000 
      2 CA         17.5780   38.0050   45.2320 C.3       9 GLL5        0.0000 
      3 CA         19.6170   41.1440   47.5940 C.3       6 GLP5        0.0000 
      4 CA         16.7240   36.5575   43.8820 C.3       3 GLC5        0.0000 
      5 CA         15.8700   35.1100   42.5320 C.3       6 GLP5        0.0000 
      6 CA         18.2620   40.6990   45.5295 C.3       3 GLC5        0.0000 
      7 CA         17.3670   39.1160   44.3650 C.3       9 GLL5        0.0000 
      8 CA         19.1570   42.2820   46.6940 C.3       6 GLP5        0.0000 
      9 CA         19.7565   39.5300   46.0470 C.3       3 GLC5        0.0000 
     10 CA         19.8960   37.9160   44.5000 C.3       9 GLL5        0.0000 
     11 CA         19.9300   35.7320   44.5600 C.3       3 GLC5        0.0000 
     12 CA         19.9640   33.5480   44.6200 C.3       6 GLP5        0.0000 
     13 CA         13.2225   40.2320   46.4485 C.3       3 GLC5        0.0000 
     14 CA         12.9280   38.1820   45.7230 C.3       9 GLL5        0.0000 
     15 CA         13.5170   42.2820   47.1740 C.3       6 GLP5        0.0000 
     16 CA         13.7070   41.3250   45.1610 C.3       3 GLC5        0.0000 
     17 CA         13.8970   40.3680   43.1480 C.3       9 GLL5        0.0000 
     18 CA          9.0880   37.3210   44.1710 C.3       3 GLC5        0.0000 
     19 CA         10.6660   38.5160   44.6400 C.3       9 GLL5        0.0000 
     20 CA          7.5100   36.1260   43.7020 C.3       6 GLP5        0.0000 
     21 O          13.3950   37.8340   40.4205 O.2       1 ALC1        0.0000 
     22 O          13.3050   38.9910   41.2070 O.2       7 ALL1        0.0000 
     23 O          13.4850   36.6770   39.6340 O.2       4 ALP1        0.0000 
     24 N          19.9915   35.4360   46.3565 N.am      2 SEC2        0.0000 
     25 N          19.1290   36.4610   45.9730 N.am      8 SEL2        0.0000 
     26 N          20.8540   34.4110   46.7400 N.am      5 SEP2        0.0000 
     27 N          20.6695   40.2990   41.5300 N.am      2 SEC2        0.0000 
     28 N          20.7280   39.5140   42.9000 N.am      8 SEL2        0.0000 
     29 N          20.6110   41.0840   40.1600 N.am      5 SEP2        0.0000 
     30 CA         21.7415   41.0355   44.7650 C.3       3 GLC5        0.0000 
     31 CA         21.9810   39.5700   43.5770 C.3       9 GLL5        0.0000 
     32 CA         21.5020   42.5010   45.9530 C.3       6 GLP5        0.0000 
     33 CA         15.9455   38.0475   48.9795 C.3       3 GLC5        0.0000 
     34 CA         13.9330   38.3370   48.0830 C.3       9 GLL5        0.0000 
     35 CA         17.9580   37.7580   49.8760 C.3       6 GLP5        0.0000 
     36 CA         12.9605   39.4420   49.2560 C.3       3 GLC5        0.0000 
     37 CA         11.9880   40.5470   50.4290 C.3       6 GLP5        0.0000 
     38 CA         16.2933   40.5437   45.9348 C.3       3 GLC5        0.0000 
     39 CA         16.0740   39.8070   44.2400 C.3       9 GLL5        0.0000 
     40 CA         15.8660   41.6260   47.5670 C.3       6 GLP5        0.0000 
     41 CA         19.5603   40.9125   44.5560 C.3       3 GLC5        0.0000 
     42 CA         18.4340   39.5990   43.5970 C.3       9 GLL5        0.0000 
     43 CA         20.0560   42.5210   45.4800 C.3       6 GLP5        0.0000 
     44 CA         12.5808   36.7405   45.5877 C.3       3 GLC5        0.0000 
     45 CA         11.7110   35.5550   44.9590 C.3       6 GLP5        0.0000 
     46 CA         14.9095   39.8147   47.4818 C.3       3 GLC5        0.0000 
     47 CA         13.9730   37.6700   46.7100 C.3       9 GLL5        0.0000 
     48 CA         10.6844   38.6650   46.8546 C.3       3 GLC5        0.0000 
     49 CA          9.9360   39.0830   48.5310 C.3       6 GLP5        0.0000 
     50 CA         11.3898   36.8500   45.0670 C.3       3 GLC5        0.0000 
     51 CA         11.4710   37.7740   45.7100 C.3       9 GLL5        0.0000 
@<TRIPOS>BOND
@<TRIPOS>SUBSTRUCTURE
     1 ALC1       21 GROUP        1 X    ALC  0     ROOT ALC X 1
     2 SEC2       24 GROUP        1 X    SEC  0     **** SEC X 2
     3 GLC5        1 GROUP        1 X    GLC  0     **** GLC X 6
     4 ALP1       23 GROUP        1 Y    ALP  0     ROOT ALP Y 8
     5 SEP2       26 GROUP        1 Y    SEP  0     **** SEP Y 9
     6 GLP5        3 GROUP        1 Y    GLP  0     **** GLP Y 13
     7 ALL1       22 GROUP        1 Z    ALL  0     ROOT ALL Z 15
     8 SEL2       25 GROUP        1 Z    SEL  0     **** SEL Z 16
     9 GLL5        2 GROUP        1 Z    GLL  0     **** GLL Z 20
@<TRIPOS>SET

