#    Name: 3w55_1FM_1_ligand
#    Modification time : Tue Mar 25 02:17:31 2014

@<TRIPOS>MOLECULE
3w55_1FM_1_ligand
   47    48     1     0     0
SMALL
NO_CHARGES


@<TRIPOS>ATOM
      1 C2         17.5780   38.0050   45.2320 C.ar      1 1FM401      0.0000 
      2 C3         17.3670   39.1160   44.3650 C.ar      1 1FM401      0.0000 
      3 C11        18.8550   37.4200   45.2680 C.ar      1 1FM401      0.0000 
      4 C14        18.4340   39.5990   43.5970 C.ar      1 1FM401      0.0000 
      5 C15        19.6950   39.0090   43.6670 C.ar      1 1FM401      0.0000 
      6 O15        15.2730   37.8420   45.9850 O.3       1 1FM401      0.0000 
      7 C16        19.8960   37.9160   44.5000 C.ar      1 1FM401      0.0000 
      8 C17        15.3380   39.8540   43.1080 C.2       1 1FM401      0.0000 
      9 C18        12.9280   38.1820   45.7230 C.3       1 1FM401      0.0000 
     10 C23        16.0740   39.8070   44.2400 C.2       1 1FM401      0.0000 
     11 C24        12.9240   39.4980   42.4050 C.3       1 1FM401      0.0000 
     12 C26        16.5490   37.3750   46.1400 C.2       1 1FM401      0.0000 
     13 C31        13.9730   37.6700   46.7100 C.3       1 1FM401      0.0000 
     14 C34        13.8970   40.3680   43.1480 C.3       1 1FM401      0.0000 
     15 O38        16.8310   36.5160   46.9810 O.2       1 1FM401      0.0000 
     16 C39        11.4560   39.7640   42.5150 C.3       1 1FM401      0.0000 
     17 C40        11.4100   38.5000   43.3410 C.2       1 1FM401      0.0000 
     18 O40        11.9540   37.4750   42.9850 O.2       1 1FM401      0.0000 
     19 C41        10.6660   38.5160   44.6400 C.2       1 1FM401      0.0000 
     20 C42        11.4710   37.7740   45.7100 C.2       1 1FM401      0.0000 
     21 O42        13.3050   38.9910   41.2070 O.3       1 1FM401      0.0000 
     22 O44        10.8980   40.9310   43.0710 O.3       1 1FM401      0.0000 
     23 O46        19.1290   36.4610   45.9730 O.co2     1 1FM401      0.0000 
     24 O48        20.7280   39.5140   42.9000 O.3       1 1FM401      0.0000 
     25 C59        21.9810   39.5700   43.5770 C.3       1 1FM401      0.0000 
     26 C62        13.9330   38.3370   48.0830 C.3       1 1FM401      0.0000 
     27 H          18.2811   40.4056   42.9694 H         1 1FM401      0.0000 
     28 H          20.8264   37.4720   44.5461 H         1 1FM401      0.0000 
     29 H          15.6689   39.5663   42.1915 H         1 1FM401      0.0000 
     30 H          13.3489   38.0018   44.6607 H         1 1FM401      0.0000 
     31 H          12.9650   39.3376   45.7600 H         1 1FM401      0.0000 
     32 H          15.7402   40.2833   45.1202 H         1 1FM401      0.0000 
     33 H          12.9813   38.4637   43.1342 H         1 1FM401      0.0000 
     34 H          13.8005   36.5928   46.8222 H         1 1FM401      0.0000 
     35 H          13.8779   41.3882   42.7267 H         1 1FM401      0.0000 
     36 H          13.5856   40.4538   44.2036 H         1 1FM401      0.0000 
     37 H          11.0484   39.4329   41.5503 H         1 1FM401      0.0000 
     38 H           9.8544   38.9044   44.7899 H         1 1FM401      0.0000 
     39 H          11.0987   37.1459   46.2822 H         1 1FM401      0.0000 
     40 H          22.7022   39.9430   42.9932 H         1 1FM401      0.0000 
     41 H          21.9369   40.1465   44.3929 H         1 1FM401      0.0000 
     42 H          22.2834   38.6643   43.8741 H         1 1FM401      0.0000 
     43 H          14.6386   37.9753   48.6923 H         1 1FM401      0.0000 
     44 H          14.0777   39.3245   48.0205 H         1 1FM401      0.0000 
     45 H          13.0534   38.1979   48.5380 H         1 1FM401      0.0000 
     46 H          13.1459   38.0065   41.2804 H         1 1FM401      0.0000 
     47 H          10.0574   40.6274   43.5196 H         1 1FM401      0.0000 
@<TRIPOS>BOND
     1    2    1 ar   
     2    3    1 ar   
     3   12    1 1    
     4    4    2 ar   
     5   10    2 1    
     6    7    3 ar   
     7   23    3 ar   
     8    5    4 ar   
     9   27    4 1    
    10    7    5 ar   
    11   24    5 1    
    12   12    6 1    
    13   13    6 1    
    14   28    7 1    
    15   10    8 2    
    16   14    8 1    
    17   29    8 1    
    18   13    9 1    
    19   20    9 1    
    20   30    9 1    
    21   31    9 1    
    22   32   10 1    
    23   14   11 1    
    24   16   11 1    
    25   21   11 1    
    26   33   11 1    
    27   15   12 2    
    28   26   13 1    
    29   34   13 1    
    30   35   14 1    
    31   36   14 1    
    32   17   16 1    
    33   22   16 1    
    34   37   16 1    
    35   18   17 2    
    36   19   17 1    
    37   20   19 2    
    38   38   19 1    
    39   39   20 1    
    40   46   21 1    
    41   47   22 1    
    42   25   24 1    
    43   40   25 1    
    44   41   25 1    
    45   42   25 1    
    46   43   26 1    
    47   44   26 1    
    48   45   26 1    
@<TRIPOS>SUBSTRUCTURE
     1 1FM401      1 GROUP   
@<TRIPOS>SET

