#    Name: 3vbq_0F5_1_INTS_M
#    Modification time : Tue Mar 25 00:30:45 2014

@<TRIPOS>MOLECULE
3vbq_0F5_1_INTS_M
   68     0     9     0     0
SMALL
NO_CHARGES


@<TRIPOS>ATOM
      1 CA        -25.1350  -36.6320    3.9180 C.3       3 GLC5        0.0000 
      2 CA        -23.7340  -36.8950    2.6490 C.3       9 GLL5        0.0000 
      3 CA        -26.5360  -36.3690    5.1870 C.3       6 GLP5        0.0000 
      4 CA        -22.7530  -36.4950    4.5405 C.3       3 GLC5        0.0000 
      5 CA        -21.7720  -36.0950    6.4320 C.3       6 GLP5        0.0000 
      6 CA        -24.6290  -34.8430    4.3000 C.3       3 GLC5        0.0000 
      7 CA        -23.3650  -34.4490    2.5990 C.3       9 GLL5        0.0000 
      8 CA        -25.8930  -35.2370    6.0010 C.3       6 GLP5        0.0000 
      9 CA        -19.7205  -33.6150   -5.0015 C.3       3 GLC5        0.0000 
     10 CA        -21.2850  -32.7990   -4.1430 C.3       9 GLL5        0.0000 
     11 CA        -18.1560  -34.4310   -5.8600 C.3       6 GLP5        0.0000 
     12 CA        -20.2415  -31.4555   -4.3395 C.3       3 GLC5        0.0000 
     13 CA        -19.1980  -30.1120   -4.5360 C.3       6 GLP5        0.0000 
     14 CA        -21.0705  -29.7165   -3.8825 C.3       3 GLC5        0.0000 
     15 CA        -22.4380  -30.6290   -3.2610 C.3       9 GLL5        0.0000 
     16 CA        -19.7030  -28.8040   -4.5040 C.3       6 GLP5        0.0000 
     17 N         -24.1220  -30.9210    3.4510 N.am      1 SEC2        0.0000 
     18 N         -23.2080  -31.9970    3.9200 N.am      7 SEL2        0.0000 
     19 N         -25.0360  -29.8450    2.9820 N.am      4 SEP2        0.0000 
     20 CA        -20.0600  -33.1845    0.0215 C.3       3 GLC5        0.0000 
     21 CA        -21.8560  -33.0740    0.6120 C.3       9 GLL5        0.0000 
     22 CA        -18.2640  -33.2950   -0.5690 C.3       6 GLP5        0.0000 
     23 CA        -23.8410  -32.9620    0.1645 C.3       3 GLC5        0.0000 
     24 CA        -25.8260  -32.8500   -0.2830 C.3       6 GLP5        0.0000 
     25 CA        -24.5520  -32.8210    2.1225 C.3       3 GLC5        0.0000 
     26 CA        -22.6580  -33.3370    2.0960 C.3       9 GLL5        0.0000 
     27 CA        -26.4460  -32.3050    2.1490 C.3       6 GLP5        0.0000 
     28 CA        -24.6230  -34.3075    0.1055 C.3       3 GLC5        0.0000 
     29 CA        -23.4200  -35.7650    0.4940 C.3       9 GLL5        0.0000 
     30 CA        -24.3290  -39.6965    3.0360 C.3       3 GLC5        0.0000 
     31 CA        -23.9150  -38.0910    1.9400 C.3       9 GLL5        0.0000 
     32 CA        -24.7430  -41.3020    4.1320 C.3       6 GLP5        0.0000 
     33 CA        -23.7230  -40.1130    1.2295 C.3       3 GLC5        0.0000 
     34 CA        -23.8370  -38.1350    0.5240 C.3       9 GLL5        0.0000 
     35 CA        -23.6090  -42.0910    1.9350 C.3       6 GLP5        0.0000 
     36 CA        -25.5560  -36.2920   -5.1045 C.3       3 GLC5        0.0000 
     37 CA        -23.5090  -36.9050   -4.5460 C.3       9 GLL5        0.0000 
     38 CA        -27.6030  -35.6790   -5.6630 C.3       6 GLP5        0.0000 
     39 CA        -19.8600  -31.0775   -3.3570 C.3       3 GLC5        0.0000 
     40 CA        -21.1210  -31.4780   -3.3340 C.3       9 GLL5        0.0000 
     41 CA        -18.5990  -30.6770   -3.3800 C.3       6 GLP5        0.0000 
     42 CA        -19.6925  -32.3865   -1.9515 C.3       3 GLC5        0.0000 
     43 OD1       -22.4325  -28.3525   -1.3665 O.co2     2 ASC3        0.0000 
     44 OD1       -22.3060  -29.3900   -2.4670 O.co2     8 ASL3        0.0000 
     45 OD1       -22.5590  -27.3150   -0.2660 O.co2     5 ASP3        0.0000 
     46 CA        -25.4312  -36.6825    1.5765 C.3       3 GLC5        0.0000 
     47 CA        -27.2460  -37.0590    0.8890 C.3       6 GLP5        0.0000 
     48 CA        -21.8407  -33.9590    3.9047 C.3       3 GLC5        0.0000 
     49 CA        -20.6700  -34.0250    5.4620 C.3       6 GLP5        0.0000 
     50 CA        -25.2320  -34.3910    2.3630 C.3       3 GLC5        0.0000 
     51 CA        -27.0320  -33.6990    2.4870 C.3       6 GLP5        0.0000 
     52 CA        -24.6848  -32.4515   -1.6683 C.3       3 GLC5        0.0000 
     53 CA        -23.3730  -31.4830   -2.5650 C.3       9 GLL5        0.0000 
     54 CA        -22.0161  -37.1282    2.1240 C.3       3 GLC5        0.0000 
     55 CA        -20.5140  -38.2210    2.8690 C.3       6 GLP5        0.0000 
     56 CA        -25.3720  -36.7205    0.5088 C.3       3 GLC5        0.0000 
     57 CA        -22.1950  -38.1670    2.0505 C.3       3 GLC5        0.0000 
     58 CA        -25.5610  -37.5860    1.0605 C.3       3 GLC5        0.0000 
     59 CA        -22.0592  -38.5035   -0.6487 C.3       3 GLC5        0.0000 
     60 CA        -20.4120  -39.4400   -1.4410 C.3       6 GLP5        0.0000 
     61 CA        -22.0737  -38.4985   -1.7555 C.3       3 GLC5        0.0000 
     62 CA        -23.5750  -36.9990   -1.6770 C.3       9 GLL5        0.0000 
     63 CA        -25.6082  -36.8910   -1.8010 C.3       3 GLC5        0.0000 
     64 CA        -23.8960  -38.1150   -2.4630 C.3       9 GLL5        0.0000 
     65 CA        -27.4810  -36.2250   -1.5320 C.3       6 GLP5        0.0000 
     66 CA        -21.4710  -37.2392   -3.8023 C.3       3 GLC5        0.0000 
     67 CA        -23.1810  -35.8300   -3.7130 C.3       9 GLL5        0.0000 
     68 CA        -19.5970  -38.1110   -3.4750 C.3       6 GLP5        0.0000 
@<TRIPOS>BOND
@<TRIPOS>SUBSTRUCTURE
     1 SEC2       17 GROUP        1 X    SEC  0     ROOT SEC X 2
     2 ASC3       43 GROUP        1 X    ASC  0     **** ASC X 3
     3 GLC5        1 GROUP        1 X    GLC  0     **** GLC X 6
     4 SEP2       19 GROUP        1 Y    SEP  0     ROOT SEP Y 9
     5 ASP3       45 GROUP        1 Y    ASP  0     **** ASP Y 10
     6 GLP5        3 GROUP        1 Y    GLP  0     **** GLP Y 13
     7 SEL2       18 GROUP        1 Z    SEL  0     ROOT SEL Z 16
     8 ASL3       44 GROUP        1 Z    ASL  0     **** ASL Z 17
     9 GLL5        2 GROUP        1 Z    GLL  0     **** GLL Z 20
@<TRIPOS>SET

