#    Name: 3vbq_0F5_1_ligand
#    Modification time : Tue Mar 25 00:30:45 2014

@<TRIPOS>MOLECULE
3vbq_0F5_1_ligand
   50    53     1     0     0
SMALL
NO_CHARGES


@<TRIPOS>ATOM
      1 C10       -23.7340  -36.8950    2.6490 C.ar      1 0F5555      0.0000 
      2 C13       -23.3650  -34.4490    2.5990 C.2       1 0F5555      0.0000 
      3 C15       -22.6470  -32.1290    2.8120 C.2       1 0F5555      0.0000 
      4 C17       -21.4800  -31.3880    1.0980 C.2       1 0F5555      0.0000 
      5 C21       -22.4730  -33.5340   -3.4880 C.3       1 0F5555      0.0000 
      6 C22       -21.2850  -32.7990   -4.1430 C.3       1 0F5555      0.0000 
      7 C24       -22.4380  -30.6290   -3.2610 C.3       1 0F5555      0.0000 
      8 C26       -23.7140  -32.6230   -3.5420 C.3       1 0F5555      0.0000 
      9 O19       -23.2080  -31.9970    3.9200 O.2       1 0F5555      0.0000 
     10 N16       -22.0150  -31.0440    2.2900 N.am      1 0F5555      0.0000 
     11 O20       -20.8640  -30.6360    0.3570 O.2       1 0F5555      0.0000 
     12 S18       -21.8560  -33.0740    0.6120 S.3       1 0F5555      0.0000 
     13 C14       -22.6580  -33.3370    2.0960 C.2       1 0F5555      0.0000 
     14 C12       -23.4990  -35.7170    1.8790 C.ar      1 0F5555      0.0000 
     15 C11       -23.4200  -35.7650    0.4940 C.ar      1 0F5555      0.0000 
     16 C08       -23.9150  -38.0910    1.9400 C.ar      1 0F5555      0.0000 
     17 C09       -23.8370  -38.1350    0.5240 C.ar      1 0F5555      0.0000 
     18 C07       -23.5760  -36.9990   -0.2370 C.ar      1 0F5555      0.0000 
     19 C03       -23.5750  -36.9990   -1.6770 C.ar      1 0F5555      0.0000 
     20 N02       -23.2190  -35.8760   -2.3550 N.ar      1 0F5555      0.0000 
     21 C01       -23.8960  -38.1150   -2.4630 C.ar      1 0F5555      0.0000 
     22 N05       -23.8870  -38.0650   -3.8300 N.ar      1 0F5555      0.0000 
     23 C06       -23.5090  -36.9050   -4.5460 C.ar      1 0F5555      0.0000 
     24 C04       -23.1810  -35.8300   -3.7130 C.ar      1 0F5555      0.0000 
     25 N28       -22.8310  -34.7090   -4.2780 N.pl3     1 0F5555      0.0000 
     26 C23       -21.1210  -31.4780   -3.3340 C.3       1 0F5555      0.0000 
     27 N27       -22.3060  -29.3900   -2.4670 N.4       1 0F5555      0.0000 
     28 C25       -23.3730  -31.4830   -2.5650 C.3       1 0F5555      0.0000 
     29 H         -23.7659  -36.8571    3.6463 H         1 0F5555      0.0000 
     30 H         -23.8236  -34.3868    3.5294 H         1 0F5555      0.0000 
     31 H         -22.2596  -33.7705   -2.4965 H         1 0F5555      0.0000 
     32 H         -21.5193  -32.5641   -5.1511 H         1 0F5555      0.0000 
     33 H         -20.4031  -33.3810   -4.0434 H         1 0F5555      0.0000 
     34 H         -22.7681  -30.4416   -4.2445 H         1 0F5555      0.0000 
     35 H         -24.5595  -33.1521   -3.1914 H         1 0F5555      0.0000 
     36 H         -23.8276  -32.2337   -4.5184 H         1 0F5555      0.0000 
     37 H         -21.9605  -30.1751    2.7057 H         1 0F5555      0.0000 
     38 H         -23.2449  -34.9037   -0.0509 H         1 0F5555      0.0000 
     39 H         -24.1102  -38.9653    2.4546 H         1 0F5555      0.0000 
     40 H         -23.9807  -39.0480    0.0515 H         1 0F5555      0.0000 
     41 H         -24.1474  -39.0039   -1.9765 H         1 0F5555      0.0000 
     42 H         -23.4824  -36.8669   -5.5194 H         1 0F5555      0.0000 
     43 H         -22.7843  -34.5792   -5.3133 H         1 0F5555      0.0000 
     44 H         -20.3424  -30.8711   -3.7999 H         1 0F5555      0.0000 
     45 H         -20.8085  -31.7215   -2.3168 H         1 0F5555      0.0000 
     46 H         -24.2869  -30.9659   -2.3227 H         1 0F5555      0.0000 
     47 H         -22.9382  -31.9194   -1.6808 H         1 0F5555      0.0000 
     48 H         -22.0530  -29.5818   -1.5187 H         1 0F5555      0.0000 
     49 H         -21.6048  -28.7826   -2.8403 H         1 0F5555      0.0000 
     50 H         -23.1606  -28.8713   -2.4432 H         1 0F5555      0.0000 
@<TRIPOS>BOND
     1   14    1 ar   
     2   16    1 ar   
     3   29    1 1    
     4   13    2 2    
     5   14    2 1    
     6   30    2 1    
     7    9    3 2    
     8   10    3 1    
     9   13    3 1    
    10   10    4 am   
    11   11    4 2    
    12   12    4 1    
    13    6    5 1    
    14    8    5 1    
    15   25    5 1    
    16   31    5 1    
    17   26    6 1    
    18   32    6 1    
    19   33    6 1    
    20   26    7 1    
    21   27    7 1    
    22   28    7 1    
    23   34    7 1    
    24   28    8 1    
    25   35    8 1    
    26   36    8 1    
    27   37   10 1    
    28   13   12 1    
    29   15   14 ar   
    30   18   15 ar   
    31   38   15 1    
    32   17   16 ar   
    33   39   16 1    
    34   18   17 ar   
    35   40   17 1    
    36   19   18 ar   
    37   20   19 ar   
    38   21   19 ar   
    39   24   20 ar   
    40   22   21 ar   
    41   41   21 1    
    42   23   22 ar   
    43   24   23 ar   
    44   42   23 1    
    45   25   24 1    
    46   43   25 1    
    47   44   26 1    
    48   45   26 1    
    49   48   27 1    
    50   49   27 1    
    51   50   27 1    
    52   46   28 1    
    53   47   28 1    
@<TRIPOS>SUBSTRUCTURE
     1 0F5555      1 GROUP   
@<TRIPOS>SET

