#    Name: 4exg_916_1_INTS_M
#    Modification time : Mon Mar 24 18:43:57 2014

@<TRIPOS>MOLECULE
4exg_916_1_INTS_M
   71     0     9     0     0
SMALL
NO_CHARGES


@<TRIPOS>ATOM
      1 N           8.5895    3.3125  -18.4810 N.am      2 SEC2        0.0000 
      2 N           7.3340    2.3220  -18.3080 N.am      8 SEL2        0.0000 
      3 N           9.8450    4.3030  -18.6540 N.am      5 SEP2        0.0000 
      4 CA          8.2525    2.1235  -16.5085 C.3       3 GLC5        0.0000 
      5 CA          6.7000    0.6360  -16.7630 C.3       9 GLL5        0.0000 
      6 CA          9.8050    3.6110  -16.2540 C.3       6 GLP5        0.0000 
      7 CA          4.8110    0.5290  -15.8415 C.3       3 GLC5        0.0000 
      8 CA          2.9220    0.4220  -14.9200 C.3       6 GLP5        0.0000 
      9 O           4.1675    0.8555  -18.0390 O.2       1 ALC1        0.0000 
     10 O           5.1800    1.6990  -18.4330 O.2       7 ALL1        0.0000 
     11 O           3.1550    0.0120  -17.6450 O.2       4 ALP1        0.0000 
     12 CA          2.5540    1.2755  -19.3610 C.3       3 GLC5        0.0000 
     13 CA          4.1880    1.7900  -20.5780 C.3       9 GLL5        0.0000 
     14 CA          0.9200    0.7610  -18.1440 C.3       6 GLP5        0.0000 
     15 CA          7.4595    2.2970  -21.2005 C.3       3 GLC5        0.0000 
     16 CA          6.3850    0.6940  -21.2930 C.3       9 GLL5        0.0000 
     17 CA          8.5340    3.9000  -21.1080 C.3       6 GLP5        0.0000 
     18 CA          2.4700    2.2760  -18.5790 C.3       3 GLC5        0.0000 
     19 CA          4.0200    3.7910  -19.0140 C.3       9 GLL5        0.0000 
     20 O           2.0445    4.1010  -19.9245 O.2       1 ALC1        0.0000 
     21 O           3.6260    4.7010  -20.0540 O.2       7 ALL1        0.0000 
     22 O           0.4630    3.5010  -19.7950 O.2       4 ALP1        0.0000 
     23 O           2.6800    4.2870  -20.8220 O.2       1 ALC1        0.0000 
     24 O           1.7340    3.8730  -21.5900 O.2       4 ALP1        0.0000 
     25 CA          3.9795    8.6955  -17.3485 C.3       3 GLC5        0.0000 
     26 CA          4.5870    6.9280  -17.0110 C.3       9 GLL5        0.0000 
     27 CA          3.3720   10.4630  -17.6860 C.3       6 GLP5        0.0000 
     28 CA          8.3265    8.4715  -13.0525 C.3       3 GLC5        0.0000 
     29 CA          6.9700    7.1250  -13.9510 C.3       9 GLL5        0.0000 
     30 CA          9.6830    9.8180  -12.1540 C.3       6 GLP5        0.0000 
     31 CA          5.7540    6.6095  -12.5400 C.3       3 GLC5        0.0000 
     32 CA          4.5380    6.0940  -11.1290 C.3       6 GLP5        0.0000 
     33 CA          4.4915    9.7390  -16.3940 C.3       3 GLC5        0.0000 
     34 CA          5.6110    9.0150  -15.1020 C.3       9 GLL5        0.0000 
     35 CA          5.3860   10.7955  -14.2850 C.3       3 GLC5        0.0000 
     36 CA          5.1610   12.5760  -13.4680 C.3       6 GLP5        0.0000 
     37 CA          3.7085    8.6325  -14.7530 C.3       3 GLC5        0.0000 
     38 CA          1.8060    8.2500  -14.4040 C.3       6 GLP5        0.0000 
     39 CA          3.8770    7.2090  -20.9195 C.3       3 GLC5        0.0000 
     40 CA          5.3720    7.5350  -19.3720 C.3       9 GLL5        0.0000 
     41 CA          2.3820    6.8830  -22.4670 C.3       6 GLP5        0.0000 
     42 N           8.0480    6.1505  -16.1305 N.am      2 SEC2        0.0000 
     43 N           7.3760    7.7630  -16.2290 N.am      8 SEL2        0.0000 
     44 N           8.7200    4.5380  -16.0320 N.am      5 SEP2        0.0000 
     45 CA          7.1555    7.6020  -23.4715 C.3       3 GLC5        0.0000 
     46 CA          6.8860    8.3020  -21.4460 C.3       9 GLL5        0.0000 
     47 CA          7.4250    6.9020  -25.4970 C.3       6 GLP5        0.0000 
     48 CA          6.6085    6.4595  -21.8260 C.3       3 GLC5        0.0000 
     49 CA          6.3310    4.6170  -22.2060 C.3       6 GLP5        0.0000 
     50 CA          3.7420    8.4720  -21.9945 C.3       3 GLC5        0.0000 
     51 CA          5.1020   10.0610  -21.5220 C.3       9 GLL5        0.0000 
     52 CA          3.2680   10.8770  -21.0030 C.3       3 GLC5        0.0000 
     53 CA          1.4340   11.6930  -20.4840 C.3       6 GLP5        0.0000 
     54 CA          4.2370   10.2620  -19.6040 C.3       3 GLC5        0.0000 
     55 CA          7.0895    8.4290  -24.4170 C.3       3 GLC5        0.0000 
     56 CA          6.7540    9.9560  -23.3370 C.3       9 GLL5        0.0000 
     57 CA          7.2225   10.9420  -25.0930 C.3       3 GLC5        0.0000 
     58 CA          7.6910   11.9280  -26.8490 C.3       6 GLP5        0.0000 
     59 CA          5.4418    3.4183  -21.1382 C.3       3 GLC5        0.0000 
     60 CA          4.9170    2.6490  -19.5630 C.3       9 GLL5        0.0000 
     61 CA          3.5594    0.9639  -22.5514 C.3       3 GLC5        0.0000 
     62 CA          4.3290   -0.6260  -21.2780 C.3       9 GLL5        0.0000 
     63 CA          2.6590    1.6440  -24.0510 C.3       6 GLP5        0.0000 
     64 CA          3.3180   -1.2294  -22.0764 C.3       3 GLC5        0.0000 
     65 CA          4.9930    0.5970  -21.0730 C.3       9 GLL5        0.0000 
     66 CA          1.7730   -1.5860  -22.6930 C.3       6 GLP5        0.0000 
     67 CA          5.3708    4.4075  -20.3520 C.3       3 GLC5        0.0000 
     68 CA          3.3805    7.4940  -15.3833 C.3       3 GLC5        0.0000 
     69 CA          8.3460    6.6215  -20.1770 C.3       3 GLC5        0.0000 
     70 CA          6.5850    7.9970  -19.9910 C.3       9 GLL5        0.0000 
     71 CA          9.4430    5.1290  -20.9400 C.3       6 GLP5        0.0000 
@<TRIPOS>BOND
@<TRIPOS>SUBSTRUCTURE
     1 ALC1        9 GROUP        1 X    ALC  0     ROOT ALC X 1
     2 SEC2        1 GROUP        1 X    SEC  0     **** SEC X 2
     3 GLC5        4 GROUP        1 X    GLC  0     **** GLC X 6
     4 ALP1       11 GROUP        1 Y    ALP  0     ROOT ALP Y 8
     5 SEP2        3 GROUP        1 Y    SEP  0     **** SEP Y 9
     6 GLP5        6 GROUP        1 Y    GLP  0     **** GLP Y 13
     7 ALL1       10 GROUP        1 Z    ALL  0     ROOT ALL Z 15
     8 SEL2        2 GROUP        1 Z    SEL  0     **** SEL Z 16
     9 GLL5        5 GROUP        1 Z    GLL  0     **** GLL Z 20
@<TRIPOS>SET

