#    Name: 4exg_916_1_ligand
#    Modification time : Mon Mar 24 18:43:57 2014

@<TRIPOS>MOLECULE
4exg_916_1_ligand
   69    71     1     0     0
SMALL
NO_CHARGES


@<TRIPOS>ATOM
      1 O21         7.3340    2.3220  -18.3080 O.2       1 916500      0.0000 
      2 C6          6.4180    1.6320  -17.8900 C.2       1 916500      0.0000 
      3 C5          6.7000    0.6360  -16.7630 C.3       1 916500      0.0000 
      4 N7          5.1800    1.6990  -18.4330 N.am      1 916500      0.0000 
      5 C8          4.9170    2.6490  -19.5630 C.3       1 916500      0.0000 
      6 C13         4.1880    1.7900  -20.5780 C.3       1 916500      0.0000 
      7 C22         4.9930    0.5970  -21.0730 C.ar      1 916500      0.0000 
      8 C27         4.3290   -0.6260  -21.2780 C.ar      1 916500      0.0000 
      9 C26         5.0650   -1.7310  -21.7440 C.ar      1 916500      0.0000 
     10 C25         6.4440   -1.6530  -21.9750 C.ar      1 916500      0.0000 
     11 C24         7.1070   -0.4380  -21.7280 C.ar      1 916500      0.0000 
     12 C23         6.3850    0.6940  -21.2930 C.ar      1 916500      0.0000 
     13 C9          4.0200    3.7910  -19.0140 C.3       1 916500      0.0000 
     14 O1          3.6260    4.7010  -20.0540 O.3       1 916500      0.0000 
     15 C10         4.8010    4.6050  -17.9820 C.3       1 916500      0.0000 
     16 N11         3.9550    5.6850  -17.5260 N.4       1 916500      0.0000 
     17 C12         4.5870    6.9280  -17.0110 C.3       1 916500      0.0000 
     18 C15         5.3230    6.5480  -15.7140 C.3       1 916500      0.0000 
     19 C2          6.3220    7.6450  -15.2470 C.3       1 916500      0.0000 
     20 C4          6.9700    7.1250  -13.9510 C.3       1 916500      0.0000 
     21 C3          5.6110    9.0150  -15.1020 C.3       1 916500      0.0000 
     22 C17         5.6250    7.4140  -17.9440 C.2       1 916500      0.0000 
     23 C18         5.3720    7.5350  -19.3720 C.2       1 916500      0.0000 
     24 C19         6.5850    7.9970  -19.9910 C.2       1 916500      0.0000 
     25 S20         7.9130    8.2310  -18.8370 S.3       1 916500      0.0000 
     26 C16         6.9700    7.7880  -17.5310 C.2       1 916500      0.0000 
     27 O14         7.3760    7.7630  -16.2290 O.3       1 916500      0.0000 
     28 C28         6.8860    8.3020  -21.4460 C.3       1 916500      0.0000 
     29 C29         6.5530    9.7440  -21.8420 C.3       1 916500      0.0000 
     30 C32         7.4150   10.7820  -21.0870 C.3       1 916500      0.0000 
     31 C31         5.1020   10.0610  -21.5220 C.3       1 916500      0.0000 
     32 C30         6.7540    9.9560  -23.3370 C.3       1 916500      0.0000 
     33 H           4.3919    1.1379  -18.1240 H         1 916500      0.0000 
     34 H           5.8038    3.0155  -19.9454 H         1 916500      0.0000 
     35 H           3.9065    2.4150  -21.4442 H         1 916500      0.0000 
     36 H           3.2460    1.4246  -20.1316 H         1 916500      0.0000 
     37 H           3.3342   -0.7103  -21.0927 H         1 916500      0.0000 
     38 H           4.5710   -2.6247  -21.9200 H         1 916500      0.0000 
     39 H           6.9595   -2.4601  -22.3156 H         1 916500      0.0000 
     40 H           8.1208   -0.3715  -21.8640 H         1 916500      0.0000 
     41 H           6.8663    1.5795  -21.1378 H         1 916500      0.0000 
     42 H           3.1737    3.3571  -18.5257 H         1 916500      0.0000 
     43 H           5.7040    4.9791  -18.4582 H         1 916500      0.0000 
     44 H           5.0768    3.9420  -17.1656 H         1 916500      0.0000 
     45 H           3.8796    7.6642  -16.7940 H         1 916500      0.0000 
     46 H           5.8752    5.6185  -15.8723 H         1 916500      0.0000 
     47 H           4.5911    6.3825  -14.9198 H         1 916500      0.0000 
     48 H           4.5740    7.3469  -19.7944 H         1 916500      0.0000 
     49 H           6.3117    7.6180  -22.0878 H         1 916500      0.0000 
     50 H           7.9523    8.1189  -21.6434 H         1 916500      0.0000 
     51 H           7.3905   -0.0375  -17.0268 H         1 916500      0.0000 
     52 H           7.0357    1.0927  -15.9391 H         1 916500      0.0000 
     53 H           5.8792    0.1277  -16.5026 H         1 916500      0.0000 
     54 H           7.4543    6.2625  -14.0980 H         1 916500      0.0000 
     55 H           7.6341    7.7747  -13.5812 H         1 916500      0.0000 
     56 H           6.2905    6.9614  -13.2358 H         1 916500      0.0000 
     57 H           6.2419    9.7311  -14.8035 H         1 916500      0.0000 
     58 H           5.2104    9.3189  -15.9664 H         1 916500      0.0000 
     59 H           4.8696    8.9796  -14.4318 H         1 916500      0.0000 
     60 H           8.3904   10.6572  -21.2686 H         1 916500      0.0000 
     61 H           7.1851   11.7186  -21.3515 H         1 916500      0.0000 
     62 H           7.2907   10.7182  -20.0968 H         1 916500      0.0000 
     63 H           4.9050    9.9553  -20.5473 H         1 916500      0.0000 
     64 H           4.8639   11.0003  -21.7690 H         1 916500      0.0000 
     65 H           4.4731    9.4598  -22.0150 H         1 916500      0.0000 
     66 H           7.6972    9.7732  -23.6145 H         1 916500      0.0000 
     67 H           6.1671    9.3550  -23.8795 H         1 916500      0.0000 
     68 H           6.5448   10.8949  -23.6104 H         1 916500      0.0000 
     69 H           2.6646    4.4906  -20.2313 H         1 916500      0.0000 
@<TRIPOS>BOND
     1    2    1 2    
     2    3    2 1    
     3    4    2 am   
     4   51    3 1    
     5   52    3 1    
     6   53    3 1    
     7    5    4 1    
     8   33    4 1    
     9    6    5 1    
    10   13    5 1    
    11   34    5 1    
    12    7    6 1    
    13   35    6 1    
    14   36    6 1    
    15    8    7 ar   
    16   12    7 ar   
    17    9    8 ar   
    18   37    8 1    
    19   10    9 ar   
    20   38    9 1    
    21   11   10 ar   
    22   39   10 1    
    23   12   11 ar   
    24   40   11 1    
    25   41   12 1    
    26   14   13 1    
    27   15   13 1    
    28   42   13 1    
    29   69   14 1    
    30   16   15 1    
    31   43   15 1    
    32   44   15 1    
    33   17   16 1    
    34   18   17 1    
    35   22   17 1    
    36   45   17 1    
    37   19   18 1    
    38   46   18 1    
    39   47   18 1    
    40   20   19 1    
    41   21   19 1    
    42   27   19 1    
    43   54   20 1    
    44   55   20 1    
    45   56   20 1    
    46   57   21 1    
    47   58   21 1    
    48   59   21 1    
    49   23   22 1    
    50   26   22 2    
    51   24   23 2    
    52   48   23 1    
    53   25   24 1    
    54   28   24 1    
    55   26   25 1    
    56   27   26 1    
    57   29   28 1    
    58   49   28 1    
    59   50   28 1    
    60   30   29 1    
    61   31   29 1    
    62   32   29 1    
    63   60   30 1    
    64   61   30 1    
    65   62   30 1    
    66   63   31 1    
    67   64   31 1    
    68   65   31 1    
    69   66   32 1    
    70   67   32 1    
    71   68   32 1    
@<TRIPOS>SUBSTRUCTURE
     1 916500      1 GROUP   
@<TRIPOS>SET

