#    Name: 1i6k_TYM_1_INTS_M
#    Modification time : Tue Mar 25 06:43:49 2014

@<TRIPOS>MOLECULE
1i6k_TYM_1_INTS_M
  112     0     9     0     0
SMALL
NO_CHARGES


@<TRIPOS>ATOM
      1 N          51.5945   18.0595   40.7985 N.am      2 SEC2        0.0000 
      2 N          51.3240   19.3750   40.3810 N.am      8 SEL2        0.0000 
      3 N          51.8650   16.7440   41.2160 N.am      5 SEP2        0.0000 
      4 N          53.2590   22.5670   37.3370 N.am      2 SEC2        0.0000 
      5 N          54.2710   23.2780   38.3070 N.am      8 SEL2        0.0000 
      6 N          52.2470   21.8560   36.3670 N.am      5 SEP2        0.0000 
      7 CA         54.2700   23.6645   36.6175 C.3       3 GLC5        0.0000 
      8 CA         54.0000   24.6330   38.5350 C.3       9 GLL5        0.0000 
      9 CA         54.5400   22.6960   34.7000 C.3       6 GLP5        0.0000 
     10 CA         55.9755   23.9035   38.4805 C.3       3 GLC5        0.0000 
     11 CA         57.9510   23.1740   38.4260 C.3       6 GLP5        0.0000 
     12 CA         53.8340   24.4610   35.7405 C.3       3 GLC5        0.0000 
     13 CA         53.1280   26.2260   36.7810 C.3       9 GLL5        0.0000 
     14 CA         55.2980   26.6340   36.3990 C.3       3 GLC5        0.0000 
     15 CA         57.4680   27.0420   36.0170 C.3       6 GLP5        0.0000 
     16 CA         53.6275   26.7680   34.0475 C.3       3 GLC5        0.0000 
     17 CA         53.9630   28.0090   35.7810 C.3       9 GLL5        0.0000 
     18 CA         53.2920   25.5270   32.3140 C.3       6 GLP5        0.0000 
     19 CA         55.7155   27.5255   35.8990 C.3       3 GLC5        0.0000 
     20 CA         54.7715   28.1820   37.8470 C.3       3 GLC5        0.0000 
     21 CA         55.5800   28.3550   39.9130 C.3       6 GLP5        0.0000 
     22 CA         53.3345   29.9180   35.7225 C.3       3 GLC5        0.0000 
     23 CA         52.7060   31.8270   35.6640 C.3       6 GLP5        0.0000 
     24 CA         54.1335   28.6530   33.7280 C.3       3 GLC5        0.0000 
     25 CA         54.3040   29.2970   31.6750 C.3       6 GLP5        0.0000 
     26 N          52.6770   29.4680   34.3045 N.am      2 SEC2        0.0000 
     27 N          52.8630   28.2330   35.0650 N.am      8 SEL2        0.0000 
     28 N          52.4910   30.7030   33.5440 N.am      5 SEP2        0.0000 
     29 CA         52.2940   28.3400   33.3610 C.3       3 GLC5        0.0000 
     30 CA         51.8390   27.3970   35.1730 C.3       9 GLL5        0.0000 
     31 CA         52.7490   29.2830   31.5490 C.3       6 GLP5        0.0000 
     32 CA         49.8575   28.1970   35.5840 C.3       3 GLC5        0.0000 
     33 CA         47.8760   28.9970   35.9950 C.3       6 GLP5        0.0000 
     34 O          50.3445   28.6665   33.6020 O.2       1 ALC1        0.0000 
     35 O          50.7390   27.5850   34.4630 O.2       7 ALL1        0.0000 
     36 O          49.9500   29.7480   32.7410 O.2       4 ALP1        0.0000 
     37 O          49.3800   26.8615   34.2025 O.2       1 ALC1        0.0000 
     38 O          48.0210   26.1380   33.9420 O.2       4 ALP1        0.0000 
     39 N          49.7600   25.7400   36.8945 N.am      2 SEC2        0.0000 
     40 N          51.0620   25.3540   36.4890 N.am      8 SEL2        0.0000 
     41 N          48.4580   26.1260   37.3000 N.am      5 SEP2        0.0000 
     42 N          54.9200   26.5685   40.5910 N.am      2 SEC2        0.0000 
     43 N          53.6600   25.8810   40.5550 N.am      8 SEL2        0.0000 
     44 N          56.1800   27.2560   40.6270 N.am      5 SEP2        0.0000 
     45 O          52.0865   26.0270   40.9135 O.2       1 ALC1        0.0000 
     46 O          53.6600   25.8810   40.5550 O.2       7 ALL1        0.0000 
     47 O          50.5130   26.1730   41.2720 O.2       4 ALP1        0.0000 
     48 O          52.6850   26.7545   40.3635 O.2       1 ALC1        0.0000 
     49 O          51.7100   27.6280   40.1720 O.2       4 ALP1        0.0000 
     50 CA         55.5755   24.9045   41.9845 C.3       3 GLC5        0.0000 
     51 CA         54.3840   23.5690   40.6730 C.3       9 GLL5        0.0000 
     52 CA         56.7670   26.2400   43.2960 C.3       6 GLP5        0.0000 
     53 N          55.9260   25.6730   40.7730 N.am      2 SEC2        0.0000 
     54 N          55.6720   24.0900   40.9190 N.am      8 SEL2        0.0000 
     55 O          56.2280   22.9205   41.4050 O.2       1 ALC1        0.0000 
     56 O          55.6720   24.0900   40.9190 O.2       7 ALL1        0.0000 
     57 O          56.7840   21.7510   41.8910 O.2       4 ALP1        0.0000 
     58 O          49.8290   20.5830   45.5775 O.2       1 ALC1        0.0000 
     59 O          50.7200   21.3800   45.5310 O.2       7 ALL1        0.0000 
     60 O          48.9380   19.7860   45.6240 O.2       4 ALP1        0.0000 
     61 CA         52.0015   21.9725   46.4955 C.3       3 GLC5        0.0000 
     62 CA         51.7370   21.2790   44.4200 C.3       9 GLL5        0.0000 
     63 CA         52.2660   22.6660   48.5710 C.3       6 GLP5        0.0000 
     64 CA         52.2460   23.2650   44.2715 C.3       3 GLC5        0.0000 
     65 CA         52.7550   25.2510   44.1230 C.3       6 GLP5        0.0000 
     66 CA         53.3240   18.7470   42.8685 C.3       3 GLC5        0.0000 
     67 CA         52.4940   19.9330   44.5180 C.3       9 GLL5        0.0000 
     68 CA         54.1540   17.5610   41.2190 C.3       6 GLP5        0.0000 
     69 CA         51.2635   17.8870   47.4610 C.3       3 GLC5        0.0000 
     70 CA         53.0390   18.9030   46.7980 C.3       9 GLL5        0.0000 
     71 CA         49.4880   16.8710   48.1240 C.3       6 GLP5        0.0000 
     72 O          53.9780   18.2065   48.8325 O.2       1 ALC1        0.0000 
     73 O          54.0010   19.0380   47.7150 O.2       7 ALL1        0.0000 
     74 O          53.9550   17.3750   49.9500 O.2       4 ALP1        0.0000 
     75 CA         55.0127   20.2462   39.6313 C.3       3 GLC5        0.0000 
     76 CA         54.5550   22.5560   39.5150 C.3       9 GLL5        0.0000 
     77 CA         55.9330   18.5270   39.7060 C.3       6 GLP5        0.0000 
     78 CA         56.2103   23.1182   39.2600 C.3       3 GLC5        0.0000 
     79 CA         54.6547   26.4840   39.5992 C.3       3 GLC5        0.0000 
     80 CA         52.5928   26.1977   33.9760 C.3       3 GLC5        0.0000 
     81 CA         51.9480   26.3400   36.1030 C.3       9 GLL5        0.0000 
     82 CA         53.3383   24.6660   42.2387 C.3       3 GLC5        0.0000 
     83 CA         53.4590   24.5930   40.0360 C.3       9 GLL5        0.0000 
     84 CA         54.7503   18.9902   44.6298 C.3       3 GLC5        0.0000 
     85 CA         56.5670   18.1140   44.1110 C.3       6 GLP5        0.0000 
     86 CA         52.7360   21.0087   47.4297 C.3       3 GLC5        0.0000 
     87 CA         55.6460   19.1678   45.4053 C.3       3 GLC5        0.0000 
     88 CA         54.5430   20.4850   46.0630 C.3       9 GLL5        0.0000 
     89 CA         54.3623   22.3110   46.9455 C.3       3 GLC5        0.0000 
     90 CA         53.7810   23.6520   48.1230 C.3       6 GLP5        0.0000 
     91 CA         54.3058   20.9787   48.8805 C.3       3 GLC5        0.0000 
     92 CA         54.9070   19.9580   47.3360 C.3       9 GLL5        0.0000 
     93 CA         53.1130   21.7670   50.1120 C.3       6 GLP5        0.0000 
     94 CA         55.7952   18.8732   49.2695 C.3       3 GLC5        0.0000 
     95 CA         56.0920   17.5560   50.8900 C.3       6 GLP5        0.0000 
     96 CA         56.2435   19.9030   44.9450 C.3       3 GLC5        0.0000 
     97 CA         56.4960   21.9290   46.0850 C.3       9 GLL5        0.0000 
     98 CA         56.4530   23.3545   44.9825 C.3       3 GLC5        0.0000 
     99 CA         55.3440   21.4550   45.4730 C.3       9 GLL5        0.0000 
    100 CA         56.9860   25.0170   44.1860 C.3       6 GLP5        0.0000 
    101 CA         52.6181   17.7549   45.3426 C.3       3 GLC5        0.0000 
    102 CA         53.3730   19.8000   45.7790 C.3       9 GLL5        0.0000 
    103 CA         52.2500   16.1250   44.7120 C.3       6 GLP5        0.0000 
    104 CA         57.1235   21.3383   49.3222 C.3       3 GLC5        0.0000 
    105 CA         56.0900   20.4230   47.9620 C.3       9 GLL5        0.0000 
    106 CA         57.7600   21.7600   50.9950 C.3       6 GLP5        0.0000 
    107 CA         58.1675   20.8558   45.8750 C.3       3 GLC5        0.0000 
    108 CA         56.8840   21.4100   47.3370 C.3       9 GLL5        0.0000 
    109 CA         59.6450   20.0420   45.0390 C.3       6 GLP5        0.0000 
    110 CA         55.2355   22.6608   47.4170 C.3       3 GLC5        0.0000 
    111 CA         57.8325   22.9892   47.0175 C.3       3 GLC5        0.0000 
    112 CA         58.9750   24.3090   47.3240 C.3       6 GLP5        0.0000 
@<TRIPOS>BOND
@<TRIPOS>SUBSTRUCTURE
     1 ALC1       34 GROUP        1 X    ALC  0     ROOT ALC X 1
     2 SEC2        1 GROUP        1 X    SEC  0     **** SEC X 2
     3 GLC5        7 GROUP        1 X    GLC  0     **** GLC X 6
     4 ALP1       36 GROUP        1 Y    ALP  0     ROOT ALP Y 8
     5 SEP2        3 GROUP        1 Y    SEP  0     **** SEP Y 9
     6 GLP5        9 GROUP        1 Y    GLP  0     **** GLP Y 13
     7 ALL1       35 GROUP        1 Z    ALL  0     ROOT ALL Z 15
     8 SEL2        2 GROUP        1 Z    SEL  0     **** SEL Z 16
     9 GLL5        8 GROUP        1 Z    GLL  0     **** GLL Z 20
@<TRIPOS>SET

