#    Name: 1i6k_TYM_1_ligand
#    Modification time : Tue Mar 25 06:43:49 2014

@<TRIPOS>MOLECULE
1i6k_TYM_1_ligand
   61    65     1     0     0
SMALL
NO_CHARGES


@<TRIPOS>ATOM
      1 P          51.0990   20.9170   40.4260 P.3       1 TYM350      0.0000 
      2 O1P        51.3240   19.3750   40.3810 O.co2     1 TYM350      0.0000 
      3 O2P        49.7420   21.5010   40.1750 O.co2     1 TYM350      0.0000 
      4 O5'        52.2780   21.7720   39.5660 O.3       1 TYM350      0.0000 
      5 C5'        53.6300   21.3750   39.5980 C.3       1 TYM350      0.0000 
      6 C4'        54.5550   22.5560   39.5150 C.3       1 TYM350      0.0000 
      7 O4'        54.2710   23.2780   38.3070 O.3       1 TYM350      0.0000 
      8 C1'        54.0000   24.6330   38.5350 C.3       1 TYM350      0.0000 
      9 N9         52.9790   25.1280   37.6260 N.pl3     1 TYM350      0.0000 
     10 C4         53.1280   26.2260   36.7810 C.ar      1 TYM350      0.0000 
     11 N3         54.2090   27.0170   36.6550 N.ar      1 TYM350      0.0000 
     12 C2         53.9630   28.0090   35.7810 C.ar      1 TYM350      0.0000 
     13 N1         52.8630   28.2330   35.0650 N.ar      1 TYM350      0.0000 
     14 C6         51.8390   27.3970   35.1730 C.ar      1 TYM350      0.0000 
     15 N6         50.7390   27.5850   34.4630 N.pl3     1 TYM350      0.0000 
     16 C5         51.9480   26.3400   36.1030 C.ar      1 TYM350      0.0000 
     17 N7         51.0620   25.3540   36.4890 N.2       1 TYM350      0.0000 
     18 C8         51.7010   24.6690   37.3840 C.2       1 TYM350      0.0000 
     19 C2'        53.4590   24.5930   40.0360 C.3       1 TYM350      0.0000 
     20 O2'        53.6600   25.8810   40.5550 O.3       1 TYM350      0.0000 
     21 C3'        54.3840   23.5690   40.6730 C.3       1 TYM350      0.0000 
     22 O3'        55.6720   24.0900   40.9190 O.3       1 TYM350      0.0000 
     23 NH3        50.7200   21.3800   45.5310 N.4       1 TYM350      0.0000 
     24 CA         51.7370   21.2790   44.4200 C.3       1 TYM350      0.0000 
     25 CB         52.4940   19.9330   44.5180 C.3       1 TYM350      0.0000 
     26 CG         53.3730   19.8000   45.7790 C.2       1 TYM350      0.0000 
     27 CD2        54.5430   20.4850   46.0630 C.ar      1 TYM350      0.0000 
     28 CE2        54.9070   19.9580   47.3360 C.ar      1 TYM350      0.0000 
     29 CE3        55.3440   21.4550   45.4730 C.ar      1 TYM350      0.0000 
     30 CD1        53.0390   18.9030   46.7980 C.2       1 TYM350      0.0000 
     31 NE1        54.0010   19.0380   47.7150 N.pl3     1 TYM350      0.0000 
     32 CZ2        56.0900   20.4230   47.9620 C.ar      1 TYM350      0.0000 
     33 CZ3        56.4960   21.9290   46.0850 C.ar      1 TYM350      0.0000 
     34 CH2        56.8840   21.4100   47.3370 C.ar      1 TYM350      0.0000 
     35 C          50.9600   21.1720   43.1060 C.2       1 TYM350      0.0000 
     36 O          49.8350   20.6910   43.0340 O.2       1 TYM350      0.0000 
     37 OPP        51.6310   21.5480   41.9960 O.3       1 TYM350      0.0000 
     38 H          53.8745   20.6921   38.7596 H         1 TYM350      0.0000 
     39 H          53.8702   20.8197   40.5270 H         1 TYM350      0.0000 
     40 H          55.5778   22.2242   39.5141 H         1 TYM350      0.0000 
     41 H          54.8712   25.2212   38.5535 H         1 TYM350      0.0000 
     42 H          54.7870   28.7325   35.6418 H         1 TYM350      0.0000 
     43 H          50.7504   28.3596   33.8307 H         1 TYM350      0.0000 
     44 H          49.9957   26.9355   34.6229 H         1 TYM350      0.0000 
     45 H          51.3390   23.8728   37.8793 H         1 TYM350      0.0000 
     46 H          52.4926   24.2488   39.9992 H         1 TYM350      0.0000 
     47 H          53.9229   23.0914   41.4544 H         1 TYM350      0.0000 
     48 H          52.3881   22.0650   44.3934 H         1 TYM350      0.0000 
     49 H          53.1287   19.8200   43.6286 H         1 TYM350      0.0000 
     50 H          51.7611   19.1149   44.5075 H         1 TYM350      0.0000 
     51 H          55.0708   21.8380   44.5423 H         1 TYM350      0.0000 
     52 H          52.2872   18.3400   46.8011 H         1 TYM350      0.0000 
     53 H          54.0462   18.5322   48.5607 H         1 TYM350      0.0000 
     54 H          56.3680   20.0420   48.8683 H         1 TYM350      0.0000 
     55 H          57.0669   22.6506   45.6382 H         1 TYM350      0.0000 
     56 H          57.7335   21.7447   47.7902 H         1 TYM350      0.0000 
     57 H          49.9296   21.9304   45.2620 H         1 TYM350      0.0000 
     58 H          50.3735   20.4814   45.8002 H         1 TYM350      0.0000 
     59 H          51.1063   21.8027   46.3508 H         1 TYM350      0.0000 
     60 H          52.8212   26.3808   40.3390 H         1 TYM350      0.0000 
     61 H          56.1911   23.3262   41.3026 H         1 TYM350      0.0000 
@<TRIPOS>BOND
     1    2    1 ar   
     2    3    1 ar   
     3    4    1 1    
     4   37    1 1    
     5    5    4 1    
     6    6    5 1    
     7   38    5 1    
     8   39    5 1    
     9    7    6 1    
    10   21    6 1    
    11   40    6 1    
    12    8    7 1    
    13    9    8 1    
    14   19    8 1    
    15   41    8 1    
    16   10    9 1    
    17   18    9 1    
    18   11   10 ar   
    19   16   10 ar   
    20   12   11 ar   
    21   13   12 ar   
    22   42   12 1    
    23   14   13 ar   
    24   15   14 1    
    25   16   14 ar   
    26   43   15 1    
    27   44   15 1    
    28   17   16 1    
    29   18   17 2    
    30   45   18 1    
    31   20   19 1    
    32   21   19 1    
    33   46   19 1    
    34   60   20 1    
    35   22   21 1    
    36   47   21 1    
    37   61   22 1    
    38   24   23 1    
    39   57   23 1    
    40   58   23 1    
    41   59   23 1    
    42   25   24 1    
    43   35   24 1    
    44   48   24 1    
    45   26   25 1    
    46   49   25 1    
    47   50   25 1    
    48   27   26 1    
    49   30   26 2    
    50   28   27 ar   
    51   29   27 ar   
    52   31   28 1    
    53   32   28 ar   
    54   33   29 ar   
    55   51   29 1    
    56   31   30 1    
    57   52   30 1    
    58   53   31 1    
    59   34   32 ar   
    60   54   32 1    
    61   34   33 ar   
    62   55   33 1    
    63   56   34 1    
    64   36   35 2    
    65   37   35 1    
@<TRIPOS>SUBSTRUCTURE
     1 TYM350      1 GROUP   
@<TRIPOS>SET

