#    Name: 1zgv_501_1_INTS_M
#    Modification time : Mon Apr  7 16:59:57 2014

@<TRIPOS>MOLECULE
1zgv_501_1_INTS_M
   63     0     9     0     0
SMALL
NO_CHARGES


@<TRIPOS>ATOM
      1 CA         15.2665  -11.6640   22.8630 C.3       3 GLC5        0.0000 
      2 CA         14.6110  -12.3990   21.2230 C.3       9 GLL5        0.0000 
      3 CA         15.9220  -10.9290   24.5030 C.3       6 GLP5        0.0000 
      4 CA         16.9245  -12.3745   22.8280 C.3       3 GLC5        0.0000 
      5 CA         16.6100  -13.0750   20.8400 C.3       9 GLL5        0.0000 
      6 CA         17.2390  -11.6740   24.8160 C.3       6 GLP5        0.0000 
      7 N          14.7050  -13.0650   23.6860 N.am      2 SEC2        0.0000 
      8 N          14.9310  -13.4270   22.1280 N.am      8 SEL2        0.0000 
      9 N          14.4790  -12.7030   25.2440 N.am      5 SEP2        0.0000 
     10 CA         19.6895  -12.5605   22.0265 C.3       3 GLC5        0.0000 
     11 CA         18.7030  -14.1750   20.8500 C.3       9 GLL5        0.0000 
     12 CA         20.6760  -10.9460   23.2030 C.3       6 GLP5        0.0000 
     13 CA         17.1070  -13.2505   23.6930 C.3       3 GLC5        0.0000 
     14 CA         16.9750  -14.8270   22.5700 C.3       9 GLL5        0.0000 
     15 O          15.3675  -15.4745   24.3265 O.2       1 ALC1        0.0000 
     16 O          16.5790  -15.6550   23.7440 O.2       7 ALL1        0.0000 
     17 O          14.1560  -15.2940   24.9090 O.2       4 ALP1        0.0000 
     18 CA         22.2440  -13.3700   27.2975 C.3       3 GLC5        0.0000 
     19 CA         20.4920  -14.3270   26.4940 C.3       9 GLL5        0.0000 
     20 CA         23.9960  -12.4130   28.1010 C.3       6 GLP5        0.0000 
     21 CA         21.2675  -12.7050   25.1825 C.3       3 GLC5        0.0000 
     22 CA         22.0430  -11.0830   23.8710 C.3       6 GLP5        0.0000 
     23 CA         20.6910  -15.6870   28.1420 C.3       3 GLC5        0.0000 
     24 CA         20.8900  -17.0470   29.7900 C.3       6 GLP5        0.0000 
     25 CA         19.0880  -13.2155   26.9425 C.3       3 GLC5        0.0000 
     26 CA         17.6840  -12.1040   27.3910 C.3       6 GLP5        0.0000 
     27 CA         21.7410  -14.7855   20.0900 C.3       3 GLC5        0.0000 
     28 CA         20.0680  -14.3670   20.1790 C.3       9 GLL5        0.0000 
     29 CA         23.4140  -15.2040   20.0010 C.3       6 GLP5        0.0000 
     30 CA         19.2675  -15.3515   18.8735 C.3       3 GLC5        0.0000 
     31 CA         18.4670  -16.3360   17.5680 C.3       6 GLP5        0.0000 
     32 CA         10.4255   -8.5705   23.7785 C.3       3 GLC5        0.0000 
     33 CA         11.9740   -8.7900   25.0390 C.3       9 GLL5        0.0000 
     34 CA          8.8770   -8.3510   22.5180 C.3       6 GLP5        0.0000 
     35 CA         12.1365   -7.8300   23.5225 C.3       3 GLC5        0.0000 
     36 CA         12.2990   -6.8700   22.0060 C.3       6 GLP5        0.0000 
     37 CA         11.5420   -9.3395   26.6670 C.3       3 GLC5        0.0000 
     38 CA         11.1100   -9.8890   28.2950 C.3       6 GLP5        0.0000 
     39 CA         11.1800   -7.1335   25.8045 C.3       3 GLC5        0.0000 
     40 CA         10.3860   -5.4770   26.5700 C.3       6 GLP5        0.0000 
     41 CA         10.2305  -12.9610   20.9985 C.3       3 GLC5        0.0000 
     42 CA         11.6720  -13.8410   21.8100 C.3       9 GLL5        0.0000 
     43 CA          8.7890  -12.0810   20.1870 C.3       6 GLP5        0.0000 
     44 CA         11.7170  -14.6010   19.7580 C.3       3 GLC5        0.0000 
     45 CA         11.7620  -15.3610   17.7060 C.3       6 GLP5        0.0000 
     46 CA         12.3193  -12.9432   24.6318 C.3       3 GLC5        0.0000 
     47 CA         11.6150  -12.6110   22.6210 C.3       9 GLL5        0.0000 
     48 CA         13.4650  -13.3260   26.0690 C.3       6 GLP5        0.0000 
     49 CA         10.3144  -12.0729   21.4514 C.3       3 GLC5        0.0000 
     50 CA         13.0033  -12.1505   24.3410 C.3       3 GLC5        0.0000 
     51 CA         12.5770  -10.3810   22.9890 C.3       9 GLL5        0.0000 
     52 CA         12.2385   -8.5973   22.7875 C.3       3 GLC5        0.0000 
     53 CA         11.7790  -10.2680   24.1490 C.3       9 GLL5        0.0000 
     54 CA         14.0411  -10.7753   23.9420 C.3       3 GLC5        0.0000 
     55 CA         12.3960  -12.0587   25.2120 C.3       3 GLC5        0.0000 
     56 CA         11.2185  -10.3403   26.3250 C.3       3 GLC5        0.0000 
     57 CA         10.8750  -11.3150   24.5610 C.3       9 GLL5        0.0000 
     58 CA         10.2018   -9.5854   23.2915 C.3       3 GLC5        0.0000 
     59 CA         18.0735  -14.2922   26.6130 C.3       3 GLC5        0.0000 
     60 CA         18.4020  -15.1740   25.3320 C.3       9 GLL5        0.0000 
     61 CA         17.0040  -13.2770   27.7290 C.3       6 GLP5        0.0000 
     62 CA          9.9449  -14.1599   21.9886 C.3       3 GLC5        0.0000 
     63 CA          8.4670  -15.1190   21.4750 C.3       6 GLP5        0.0000 
@<TRIPOS>BOND
@<TRIPOS>SUBSTRUCTURE
     1 ALC1       15 GROUP        1 X    ALC  0     ROOT ALC X 1
     2 SEC2        7 GROUP        1 X    SEC  0     **** SEC X 2
     3 GLC5        1 GROUP        1 X    GLC  0     **** GLC X 6
     4 ALP1       17 GROUP        1 Y    ALP  0     ROOT ALP Y 8
     5 SEP2        9 GROUP        1 Y    SEP  0     **** SEP Y 9
     6 GLP5        3 GROUP        1 Y    GLP  0     **** GLP Y 13
     7 ALL1       16 GROUP        1 Z    ALL  0     ROOT ALL Z 15
     8 SEL2        8 GROUP        1 Z    SEL  0     **** SEL Z 16
     9 GLL5        2 GROUP        1 Z    GLL  0     **** GLL Z 20
@<TRIPOS>SET

