#    Name: 1zgv_501_1_ligand
#    Modification time : Mon Apr  7 16:59:57 2014

@<TRIPOS>MOLECULE
1zgv_501_1_ligand
   45    47     1     0     0
SMALL
NO_CHARGES


@<TRIPOS>ATOM
      1 C1         10.7320  -12.5100   23.7680 C.ar      1 5011001     0.0000 
      2 C2         11.6150  -12.6110   22.6210 C.ar      1 5011001     0.0000 
      3 C3         12.5060  -11.5690   22.2370 C.ar      1 5011001     0.0000 
      4 C4         12.5770  -10.3810   22.9890 C.ar      1 5011001     0.0000 
      5 C5         11.7790  -10.2680   24.1490 C.ar      1 5011001     0.0000 
      6 C6         10.8750  -11.3150   24.5610 C.ar      1 5011001     0.0000 
      7 N10        13.3400  -11.7050   21.0830 N.pl3     1 5011001     0.0000 
      8 C11        14.6110  -12.3990   21.2230 C.ar      1 5011001     0.0000 
      9 N12        15.7110  -12.1700   20.4040 N.ar      1 5011001     0.0000 
     10 C13        16.6100  -13.0750   20.8400 C.ar      1 5011001     0.0000 
     11 N14        16.1280  -13.7970   21.8780 N.pl3     1 5011001     0.0000 
     12 N15        14.9310  -13.4270   22.1280 N.ar      1 5011001     0.0000 
     13 N16        17.8630  -13.1950   20.3310 N.ar      1 5011001     0.0000 
     14 C17        18.7030  -14.1750   20.8500 C.ar      1 5011001     0.0000 
     15 C18        18.3090  -15.0510   21.9870 C.ar      1 5011001     0.0000 
     16 C19        16.9750  -14.8270   22.5700 C.ar      1 5011001     0.0000 
     17 N21        16.5790  -15.6550   23.7440 N.pl3     1 5011001     0.0000 
     18 C22        17.7690  -16.2390   24.4090 C.3       1 5011001     0.0000 
     19 C23        18.4020  -15.1740   25.3320 C.3       1 5011001     0.0000 
     20 C26        19.8840  -15.4410   25.6620 C.3       1 5011001     0.0000 
     21 C29        20.4920  -14.3270   26.4940 C.3       1 5011001     0.0000 
     22 C37        20.0680  -14.3670   20.1790 C.3       1 5011001     0.0000 
     23 CL41       11.9740   -8.7900   25.0390 Cl        1 5011001     0.0000 
     24 C42        11.6720  -13.8410   21.8100 C.3       1 5011001     0.0000 
     25 H          10.0838  -13.2097   23.9848 H         1 5011001     0.0000 
     26 H          13.1853   -9.6239   22.7067 H         1 5011001     0.0000 
     27 H          10.3373  -11.2083   25.4143 H         1 5011001     0.0000 
     28 H          13.0658  -11.3354   20.1951 H         1 5011001     0.0000 
     29 H          18.9115  -15.7395   22.3252 H         1 5011001     0.0000 
     30 H          15.7000  -15.7860   24.0203 H         1 5011001     0.0000 
     31 H          18.5105  -16.5394   23.6770 H         1 5011001     0.0000 
     32 H          17.4905  -17.0934   25.0159 H         1 5011001     0.0000 
     33 H          17.8307  -15.1337   26.2688 H         1 5011001     0.0000 
     34 H          18.3166  -14.1918   24.8487 H         1 5011001     0.0000 
     35 H          20.4380  -15.5430   24.7246 H         1 5011001     0.0000 
     36 H          19.9561  -16.3867   26.2065 H         1 5011001     0.0000 
     37 H          21.4533  -14.5036   26.7054 H         1 5011001     0.0000 
     38 H          20.4528  -13.4467   26.0213 H         1 5011001     0.0000 
     39 H          20.0163  -14.2128   27.3661 H         1 5011001     0.0000 
     40 H          20.6196  -13.5336   20.2141 H         1 5011001     0.0000 
     41 H          20.6003  -15.0896   20.6200 H         1 5011001     0.0000 
     42 H          19.9761  -14.6173   19.2152 H         1 5011001     0.0000 
     43 H          12.3255  -13.7597   21.0575 H         1 5011001     0.0000 
     44 H          11.9492  -14.6325   22.3547 H         1 5011001     0.0000 
     45 H          10.7844  -14.0603   21.4050 H         1 5011001     0.0000 
@<TRIPOS>BOND
     1    2    1 ar   
     2    6    1 ar   
     3   25    1 1    
     4    3    2 ar   
     5   24    2 1    
     6    4    3 ar   
     7    7    3 1    
     8    5    4 ar   
     9   26    4 1    
    10    6    5 ar   
    11   23    5 1    
    12   27    6 1    
    13    8    7 1    
    14   28    7 1    
    15    9    8 ar   
    16   12    8 ar   
    17   10    9 ar   
    18   11   10 ar   
    19   13   10 ar   
    20   12   11 ar   
    21   16   11 ar   
    22   14   13 ar   
    23   15   14 ar   
    24   22   14 1    
    25   16   15 ar   
    26   29   15 1    
    27   17   16 1    
    28   18   17 1    
    29   30   17 1    
    30   19   18 1    
    31   31   18 1    
    32   32   18 1    
    33   20   19 1    
    34   33   19 1    
    35   34   19 1    
    36   21   20 1    
    37   35   20 1    
    38   36   20 1    
    39   37   21 1    
    40   38   21 1    
    41   39   21 1    
    42   40   22 1    
    43   41   22 1    
    44   42   22 1    
    45   43   24 1    
    46   44   24 1    
    47   45   24 1    
@<TRIPOS>SUBSTRUCTURE
     1 5011001     1 GROUP   
@<TRIPOS>SET

