#    Name: 3nw3_MU2_1_INTS_M
#    Modification time : Tue Mar 25 02:46:18 2014

@<TRIPOS>MOLECULE
3nw3_MU2_1_INTS_M
   60     0     9     0     0
SMALL
NO_CHARGES


@<TRIPOS>ATOM
      1 CA        -17.5045  -19.2775  -18.6050 C.3       3 GLC5        0.0000 
      2 CA        -17.6450  -21.2200  -19.3950 C.3       9 GLL5        0.0000 
      3 CA        -17.3640  -17.3350  -17.8150 C.3       6 GLP5        0.0000 
      4 CA        -18.7640  -22.3585  -18.0115 C.3       3 GLC5        0.0000 
      5 CA        -19.8830  -23.4970  -16.6280 C.3       6 GLP5        0.0000 
      6 N         -18.8605  -20.2135  -18.0930 N.am      2 SEC2        0.0000 
      7 N         -17.5960  -20.3540  -18.2740 N.am      8 SEL2        0.0000 
      8 N         -20.1250  -20.0730  -17.9120 N.am      5 SEP2        0.0000 
      9 CA        -13.6895  -20.2310  -17.4125 C.3       3 GLC5        0.0000 
     10 CA        -14.5620  -21.6940  -16.2570 C.3       9 GLL5        0.0000 
     11 CA        -12.8170  -18.7680  -18.5680 C.3       6 GLP5        0.0000 
     12 CA        -15.5700  -20.1760  -15.3050 C.3       3 GLC5        0.0000 
     13 CA        -16.5780  -18.6580  -14.3530 C.3       6 GLP5        0.0000 
     14 CA        -12.6270  -21.2900  -16.5505 C.3       3 GLC5        0.0000 
     15 CA        -10.6920  -20.8860  -16.8440 C.3       6 GLP5        0.0000 
     16 N         -13.2460  -22.7920  -20.4165 N.am      2 SEC2        0.0000 
     17 N         -14.3330  -22.1430  -21.0880 N.am      8 SEL2        0.0000 
     18 N         -12.1590  -23.4410  -19.7450 N.am      5 SEP2        0.0000 
     19 CA        -16.9415  -18.5305  -20.2205 C.3       3 GLC5        0.0000 
     20 CA        -17.4300  -19.9720  -21.4600 C.3       9 GLL5        0.0000 
     21 CA        -16.4530  -17.0890  -18.9810 C.3       6 GLP5        0.0000 
     22 CA        -13.4460  -20.9995  -21.1125 C.3       3 GLC5        0.0000 
     23 CA        -14.1470  -22.6440  -22.4190 C.3       9 GLL5        0.0000 
     24 CA        -12.7450  -19.3550  -19.8060 C.3       6 GLP5        0.0000 
     25 CA        -14.8045  -25.4140  -21.4105 C.3       3 GLC5        0.0000 
     26 CA        -14.0540  -24.1640  -22.3950 C.3       9 GLL5        0.0000 
     27 CA        -15.5550  -26.6640  -20.4260 C.3       6 GLP5        0.0000 
     28 CA        -12.6445  -24.9705  -23.4810 C.3       3 GLC5        0.0000 
     29 CA        -11.2350  -25.7770  -24.5670 C.3       6 GLP5        0.0000 
     30 N         -12.2245  -20.1605  -22.3220 N.am      2 SEC2        0.0000 
     31 N         -12.0600  -21.4990  -22.4030 N.am      8 SEL2        0.0000 
     32 N         -12.3890  -18.8220  -22.2410 N.am      5 SEP2        0.0000 
     33 O         -14.2095  -22.7515  -25.1990 O.2       1 ALC1        0.0000 
     34 O         -12.8900  -22.2390  -24.3910 O.2       7 ALL1        0.0000 
     35 O         -15.5290  -23.2640  -26.0070 O.2       4 ALP1        0.0000 
     36 CA        -11.5950  -23.8135  -25.0110 C.3       3 GLC5        0.0000 
     37 CA        -11.9550  -21.8500  -25.4550 C.3       9 GLL5        0.0000 
     38 CA        -12.1090  -20.1930  -27.8090 C.3       3 GLC5        0.0000 
     39 CA        -12.6190  -20.6800  -26.1820 C.3       9 GLL5        0.0000 
     40 CA        -11.5990  -19.7060  -29.4360 C.3       6 GLP5        0.0000 
     41 CA        -12.3935  -19.1755  -24.5625 C.3       3 GLC5        0.0000 
     42 CA        -12.1680  -17.6710  -22.9430 C.3       6 GLP5        0.0000 
     43 CA         -9.8435  -20.8390  -28.6670 C.3       3 GLC5        0.0000 
     44 CA         -8.0880  -21.9720  -27.8980 C.3       9 GLL5        0.0000 
     45 CA        -14.3172  -20.4905  -20.0162 C.3       3 GLC5        0.0000 
     46 CA        -16.2940  -21.9300  -19.6460 C.3       9 GLL5        0.0000 
     47 CA        -16.8766  -23.1672  -20.7839 C.3       3 GLC5        0.0000 
     48 CA        -15.4850  -21.3220  -20.8070 C.3       9 GLL5        0.0000 
     49 CA        -17.5260  -24.8860  -21.4040 C.3       6 GLP5        0.0000 
     50 CA        -17.4930  -22.2580  -22.1355 C.3       3 GLC5        0.0000 
     51 CA        -16.3700  -20.9400  -22.0060 C.3       9 GLL5        0.0000 
     52 CA        -18.0860  -24.0600  -22.5380 C.3       6 GLP5        0.0000 
     53 CA        -15.8133  -24.1450  -21.9055 C.3       3 GLC5        0.0000 
     54 CA        -14.3762  -23.8995  -24.2065 C.3       3 GLC5        0.0000 
     55 CA        -14.6520  -24.3950  -26.0060 C.3       6 GLP5        0.0000 
     56 CA        -13.0535  -22.8225  -26.5452 C.3       3 GLC5        0.0000 
     57 CA        -13.8200  -24.3800  -27.2720 C.3       6 GLP5        0.0000 
     58 CA         -8.1892  -23.3650  -27.5506 C.3       3 GLC5        0.0000 
     59 CA         -8.3000  -21.4320  -26.4810 C.3       9 GLL5        0.0000 
     60 CA         -8.8560  -25.1630  -27.2000 C.3       6 GLP5        0.0000 
@<TRIPOS>BOND
@<TRIPOS>SUBSTRUCTURE
     1 ALC1       33 GROUP        1 X    ALC  0     ROOT ALC X 1
     2 SEC2        6 GROUP        1 X    SEC  0     **** SEC X 2
     3 GLC5        1 GROUP        1 X    GLC  0     **** GLC X 6
     4 ALP1       35 GROUP        1 Y    ALP  0     ROOT ALP Y 8
     5 SEP2        8 GROUP        1 Y    SEP  0     **** SEP Y 9
     6 GLP5        3 GROUP        1 Y    GLP  0     **** GLP Y 13
     7 ALL1       34 GROUP        1 Z    ALL  0     ROOT ALL Z 15
     8 SEL2        7 GROUP        1 Z    SEL  0     **** SEL Z 16
     9 GLL5        2 GROUP        1 Z    GLL  0     **** GLL Z 20
@<TRIPOS>SET

