#    Name: 3nw3_MU2_1_ligand
#    Modification time : Tue Mar 25 02:46:19 2014

@<TRIPOS>MOLECULE
3nw3_MU2_1_ligand
   65    65     1     0     0
SMALL
NO_CHARGES


@<TRIPOS>ATOM
      1 C1        -17.6450  -21.2200  -19.3950 C.3       1 MU25369     0.0000 
      2 O1        -17.5960  -20.3540  -18.2740 O.3       1 MU25369     0.0000 
      3 C2        -16.2940  -21.9300  -19.6460 C.3       1 MU25369     0.0000 
      4 N2        -15.4390  -21.6520  -18.4850 N.am      1 MU25369     0.0000 
      5 C7        -15.5920  -22.1650  -17.2490 C.2       1 MU25369     0.0000 
      6 O7        -16.4920  -22.9500  -16.9250 O.2       1 MU25369     0.0000 
      7 C8        -14.5620  -21.6940  -16.2570 C.3       1 MU25369     0.0000 
      8 C3        -15.4850  -21.3220  -20.8070 C.3       1 MU25369     0.0000 
      9 O3        -14.3330  -22.1430  -21.0880 O.3       1 MU25369     0.0000 
     10 C4        -16.3700  -20.9400  -22.0060 C.3       1 MU25369     0.0000 
     11 O4        -15.5870  -20.2620  -23.0090 O.3       1 MU25369     0.0000 
     12 C5        -17.4300  -19.9720  -21.4600 C.3       1 MU25369     0.0000 
     13 O5        -18.2880  -20.7160  -20.5830 O.3       1 MU25369     0.0000 
     14 C6        -18.2560  -19.3060  -22.5630 C.3       1 MU25369     0.0000 
     15 O6        -17.4990  -18.2110  -23.1200 O.3       1 MU25369     0.0000 
     16 C18       -14.1470  -22.6440  -22.4190 C.3       1 MU25369     0.0000 
     17 C20       -14.0540  -24.1640  -22.3950 C.3       1 MU25369     0.0000 
     18 C19       -12.9140  -22.0640  -23.0670 C.2       1 MU25369     0.0000 
     19 O18       -12.0600  -21.4990  -22.4030 O.2       1 MU25369     0.0000 
     20 N4        -12.8900  -22.2390  -24.3910 N.am      1 MU25369     0.0000 
     21 C21       -11.9550  -21.8500  -25.4550 C.3       1 MU25369     0.0000 
     22 C23       -12.6190  -20.6800  -26.1820 C.3       1 MU25369     0.0000 
     23 C22       -10.5020  -21.5120  -25.2000 C.2       1 MU25369     0.0000 
     24 O19       -10.0990  -21.1130  -24.1180 O.2       1 MU25369     0.0000 
     25 N5         -9.7360  -21.6730  -26.2920 N.am      1 MU25369     0.0000 
     26 C24        -8.3000  -21.4320  -26.4810 C.3       1 MU25369     0.0000 
     27 C25        -8.0880  -21.9720  -27.8980 C.3       1 MU25369     0.0000 
     28 C26        -6.8510  -21.4320  -28.6130 C.3       1 MU25369     0.0000 
     29 C27        -6.0070  -22.5910  -29.0970 C.2       1 MU25369     0.0000 
     30 N20        -6.4060  -23.2040  -30.2110 N.am      1 MU25369     0.0000 
     31 O21        -5.0090  -22.9270  -28.4790 O.2       1 MU25369     0.0000 
     32 C28        -7.3820  -22.1210  -25.5010 C.2       1 MU25369     0.0000 
     33 O22        -7.9040  -22.8020  -24.5810 O.co2     1 MU25369     0.0000 
     34 O23        -6.1290  -22.0170  -25.6590 O.co2     1 MU25369     0.0000 
     35 H         -18.3224  -22.1311  -19.0466 H         1 MU25369     0.0000 
     36 H         -16.4166  -22.9494  -19.7826 H         1 MU25369     0.0000 
     37 H         -14.6374  -20.9775  -18.6863 H         1 MU25369     0.0000 
     38 H         -15.1038  -20.3303  -20.3828 H         1 MU25369     0.0000 
     39 H         -16.8520  -21.8035  -22.3672 H         1 MU25369     0.0000 
     40 H         -16.9120  -19.1967  -20.9028 H         1 MU25369     0.0000 
     41 H         -19.1925  -18.9621  -22.1220 H         1 MU25369     0.0000 
     42 H         -18.4825  -20.0609  -23.3171 H         1 MU25369     0.0000 
     43 H         -15.0080  -22.3860  -23.0444 H         1 MU25369     0.0000 
     44 H         -13.7618  -22.8056  -24.8280 H         1 MU25369     0.0000 
     45 H         -11.9735  -22.6720  -26.2439 H         1 MU25369     0.0000 
     46 H         -10.2180  -22.0396  -27.2065 H         1 MU25369     0.0000 
     47 H          -8.1084  -20.3783  -26.5212 H         1 MU25369     0.0000 
     48 H          -8.9827  -21.7378  -28.5048 H         1 MU25369     0.0000 
     49 H          -8.0212  -23.0751  -27.8513 H         1 MU25369     0.0000 
     50 H          -6.2774  -20.8242  -27.9226 H         1 MU25369     0.0000 
     51 H          -7.1629  -20.8281  -29.4575 H         1 MU25369     0.0000 
     52 H          -5.8711  -24.0015  -30.4901 H         1 MU25369     0.0000 
     53 H          -7.2044  -22.8113  -30.6675 H         1 MU25369     0.0000 
     54 H         -13.6349  -21.9413  -16.5385 H         1 MU25369     0.0000 
     55 H         -14.5796  -20.7002  -16.1469 H         1 MU25369     0.0000 
     56 H         -14.7093  -22.0919  -15.3515 H         1 MU25369     0.0000 
     57 H         -13.9204  -24.5424  -23.3109 H         1 MU25369     0.0000 
     58 H         -13.2900  -24.4805  -21.8328 H         1 MU25369     0.0000 
     59 H         -14.8836  -24.5810  -22.0237 H         1 MU25369     0.0000 
     60 H         -12.0541  -20.3417  -26.9346 H         1 MU25369     0.0000 
     61 H         -13.5027  -20.9385  -26.5721 H         1 MU25369     0.0000 
     62 H         -12.7839  -19.9073  -25.5690 H         1 MU25369     0.0000 
     63 H         -17.2111  -20.9080  -17.5358 H         1 MU25369     0.0000 
     64 H         -16.1216  -19.4522  -23.2508 H         1 MU25369     0.0000 
     65 H         -17.7998  -17.4038  -22.6121 H         1 MU25369     0.0000 
@<TRIPOS>BOND
     1    2    1 1    
     2    3    1 1    
     3   13    1 1    
     4   35    1 1    
     5   63    2 1    
     6    4    3 1    
     7    8    3 1    
     8   36    3 1    
     9    5    4 am   
    10   37    4 1    
    11    6    5 2    
    12    7    5 1    
    13   54    7 1    
    14   55    7 1    
    15   56    7 1    
    16    9    8 1    
    17   10    8 1    
    18   38    8 1    
    19   16    9 1    
    20   11   10 1    
    21   12   10 1    
    22   39   10 1    
    23   64   11 1    
    24   13   12 1    
    25   14   12 1    
    26   40   12 1    
    27   15   14 1    
    28   41   14 1    
    29   42   14 1    
    30   65   15 1    
    31   17   16 1    
    32   18   16 1    
    33   43   16 1    
    34   57   17 1    
    35   58   17 1    
    36   59   17 1    
    37   19   18 2    
    38   20   18 am   
    39   21   20 1    
    40   44   20 1    
    41   22   21 1    
    42   23   21 1    
    43   45   21 1    
    44   60   22 1    
    45   61   22 1    
    46   62   22 1    
    47   24   23 2    
    48   25   23 am   
    49   26   25 1    
    50   46   25 1    
    51   27   26 1    
    52   32   26 1    
    53   47   26 1    
    54   28   27 1    
    55   48   27 1    
    56   49   27 1    
    57   29   28 1    
    58   50   28 1    
    59   51   28 1    
    60   30   29 am   
    61   31   29 2    
    62   52   30 1    
    63   53   30 1    
    64   33   32 ar   
    65   34   32 ar   
@<TRIPOS>SUBSTRUCTURE
     1 MU25369     1 GROUP   
@<TRIPOS>SET

