#    Name: 1NGI_1_CAVITY_N1_6.mol2
#    Modification time : Mon Mar 10 19:35:17 2014

@<TRIPOS>MOLECULE
1NGI_1_CAVITY_N1_6.mol2
   74     0     7     0     0
SMALL
NO_CHARGES


@<TRIPOS>ATOM
      1 CA         28.1632   41.3719   13.7794 C.3       6 GLY6        0.0000 
      2 N          26.9953   42.1638   13.2707 N.2       2 ALA2        0.0000 
      3 N          25.8273   42.9557   12.7620 N.2       2 ALA2        0.0000 
      4 N          24.6594   43.7476   12.2532 N.2       2 ALA2        0.0000 
      5 CA         25.7602   41.3018   14.7645 C.3       6 GLY6        0.0000 
      6 CA         26.1296   40.9418   13.3560 C.3       6 GLY6        0.0000 
      7 N          24.9616   41.7337   12.8472 N.2       2 ALA2        0.0000 
      8 CA         23.7937   42.5255   12.3385 C.3       6 GLY6        0.0000 
      9 CA         26.4990   40.5818   11.9474 C.3       6 GLY6        0.0000 
     10 OG         24.1556   40.7997   17.6668 O.2       1 SER1        0.0000 
     11 OG         24.5251   40.4397   16.2583 O.2       1 SER1        0.0000 
     12 CA         24.8945   40.0797   14.8497 C.3       6 GLY6        0.0000 
     13 CA         23.7265   40.8716   14.3410 C.3       6 GLY6        0.0000 
     14 CA         24.0960   40.5116   12.9325 C.3       6 GLY6        0.0000 
     15 CA         22.9280   41.3035   12.4238 C.3       6 GLY6        0.0000 
     16 O          24.4654   40.1517   11.5240 O.2       2 ALA2        0.0000 
     17 CA         22.9205   39.9377   19.1606 C.3       6 GLY6        0.0000 
     18 CA         24.4579   38.7858   18.2608 C.3       6 GLY6        0.0000 
     19 CA         23.2899   39.5777   17.7520 C.3       6 GLY6        0.0000 
     20 CA         22.1220   40.3696   17.2433 C.3       6 GLY6        0.0000 
     21 N          24.8273   38.4258   16.8522 N.2       2 ALA2        0.0000 
     22 N          23.6594   39.2177   16.3435 N.2       2 ALA2        0.0000 
     23 CA         22.4914   40.0096   15.8348 C.3       6 GLY6        0.0000 
     24 CA         24.0288   38.8577   14.9350 C.3       6 GLY6        0.0000 
     25 CA         22.8609   39.6496   14.4263 C.3       6 GLY6        0.0000 
     26 O          23.2303   39.2896   13.0178 O.2       2 ALA2        0.0000 
     27 CA         22.0623   40.0815   12.5090 C.3       6 GLY6        0.0000 
     28 O          23.5997   38.9296   11.6092 O.2       2 ALA2        0.0000 
     29 O          22.4318   39.7215   11.1005 O.2       2 ALA2        0.0000 
     30 N          23.5922   37.5638   18.3460 N.2       2 ALA2        0.0000 
     31 CA         22.4243   38.3557   17.8373 C.3       6 GLY6        0.0000 
     32 CA         21.2563   39.1475   17.3286 C.3       6 GLY6        0.0000 
     33 N          22.7937   37.9957   16.4288 N.2       2 ALA2        0.0000 
     34 CA         21.6257   38.7876   15.9201 C.3       6 GLY6        0.0000 
     35 N          23.1631   37.6357   15.0203 N.2       2 ALA2        0.0000 
     36 O          21.9952   38.4276   14.5115 O.2       2 ALA2        0.0000 
     37 O          22.3646   38.0676   13.1030 O.2       2 ALA2        0.0000 
     38 O          21.5661   38.4995   11.1858 O.2       2 ALA2        0.0000 
     39 N          21.5586   37.1336   17.9226 N.2       2 ALA2        0.0000 
     40 OD1        20.3906   37.9255   17.4139 O.3       3 ASP3        0.0000 
     41 N          21.9280   36.7737   16.5141 N.2       2 ALA2        0.0000 
     42 OD1        20.7601   37.5655   16.0053 O.3       3 ASP3        0.0000 
     43 OD1        19.5921   38.3574   15.4966 O.3       3 ASP3        0.0000 
     44 CA         22.2975   36.4137   15.1055 C.3       6 GLY6        0.0000 
     45 O          21.1295   37.2056   14.5968 O.2       2 ALA2        0.0000 
     46 NZ         21.4989   36.8456   13.1883 N.2       4 LYS4        0.0000 
     47 O          20.7004   37.2775   11.2710 O.2       2 ALA2        0.0000 
     48 OD1        17.9876   37.8554   18.3989 O.3       3 ASP3        0.0000 
     49 OG         20.6929   35.9116   18.0078 O.2       1 SER1        0.0000 
     50 OD1        19.5250   36.7035   17.4991 O.3       3 ASP3        0.0000 
     51 CA         21.0624   35.5516   16.5993 C.3       6 GLY6        0.0000 
     52 DU         19.8944   36.3435   16.0906 H         7 CUB7        0.0000 
     53 O          18.7264   37.1354   15.5819 O.2       2 ALA2        0.0000 
     54 CA         20.2638   35.9835   14.6821 C.3       6 GLY6        0.0000 
     55 O          19.0959   36.7754   14.1734 O.2       2 ALA2        0.0000 
     56 O          19.4653   36.4154   12.7648 O.2       2 ALA2        0.0000 
     57 NZ         19.8347   36.0555   11.3563 N.2       4 LYS4        0.0000 
     58 OG         18.6668   36.8473   10.8476 O.2       1 SER1        0.0000 
     59 CA         18.2899   35.8415   18.9929 C.3       6 GLY6        0.0000 
     60 NZ         17.1219   36.6333   18.4842 N.2       4 LYS4        0.0000 
     61 O          19.8272   34.6896   18.0931 O.2       2 ALA2        0.0000 
     62 CA         18.6593   35.4815   17.5844 C.3       6 GLY6        0.0000 
     63 CZ         17.4913   36.2734   17.0757 C.ar      5 PHE5        0.0000 
     64 CA         20.1967   34.3296   16.6846 C.3       6 GLY6        0.0000 
     65 CZ         19.0287   35.1215   16.1759 C.ar      5 PHE5        0.0000 
     66 CA         20.5661   33.9696   15.2761 C.3       6 GLY6        0.0000 
     67 CZ         19.3982   34.7615   14.7673 C.ar      5 PHE5        0.0000 
     68 CZ         18.2302   35.5534   14.2586 C.ar      5 PHE5        0.0000 
     69 NZ         19.7676   34.4015   13.3588 N.2       4 LYS4        0.0000 
     70 OG         18.5996   35.1934   12.8501 O.2       1 SER1        0.0000 
     71 CA         17.7936   34.2595   17.6696 C.3       6 GLY6        0.0000 
     72 O          19.3310   33.1076   16.7698 O.2       2 ALA2        0.0000 
     73 CZ         18.1630   33.8995   16.2611 C.ar      5 PHE5        0.0000 
     74 CZ         18.5325   33.5395   14.8526 C.ar      5 PHE5        0.0000 
@<TRIPOS>BOND
@<TRIPOS>SUBSTRUCTURE
     1 SER1       10 GROUP   
     2 ALA2        2 GROUP   
     3 ASP3       40 GROUP   
     4 LYS4       46 GROUP   
     5 PHE5       63 GROUP   
     6 GLY6        1 GROUP   
     7 CUB7       52 GROUP   
@<TRIPOS>SET

