#    Name: 1ngi_ANP_1_INTS_M
#    Modification time : Mon Mar 24 18:13:00 2014

@<TRIPOS>MOLECULE
1ngi_ANP_1_INTS_M
   83     0     9     0     0
SMALL
NO_CHARGES


@<TRIPOS>ATOM
      1 N          18.3980   28.5400   21.1905 N.am      2 SEC2        0.0000 
      2 N          18.7170   28.2840   19.7360 N.am      8 SEL2        0.0000 
      3 N          18.0790   28.7960   22.6450 N.am      5 SEP2        0.0000 
      4 N          18.6870   27.3180   20.4690 N.am      2 SEC2        0.0000 
      5 N          18.6570   26.3520   21.2020 N.am      5 SEP2        0.0000 
      6 N          19.8030   27.3070   19.5930 N.am      2 SEC2        0.0000 
      7 N          20.8890   26.3300   19.4500 N.am      5 SEP2        0.0000 
      8 N          15.7905   27.0725   17.5235 N.am      2 SEC2        0.0000 
      9 N          17.1250   27.1050   18.2760 N.am      8 SEL2        0.0000 
     10 N          14.4560   27.0400   16.7710 N.am      5 SEP2        0.0000 
     11 N          15.8535   26.6385   18.8445 N.am      2 SEC2        0.0000 
     12 N          14.5820   26.1720   19.4130 N.am      5 SEP2        0.0000 
     13 N          17.8910   26.7285   19.7390 N.am      2 SEC2        0.0000 
     14 N          16.2275   30.7020   18.1030 N.am      2 SEC2        0.0000 
     15 N          16.7810   29.5580   18.9080 N.am      8 SEL2        0.0000 
     16 N          15.6740   31.8460   17.2980 N.am      5 SEP2        0.0000 
     17 N          16.8915   30.2825   20.0980 N.am      2 SEC2        0.0000 
     18 N          17.0020   31.0070   21.2880 N.am      5 SEP2        0.0000 
     19 N          15.1760   29.6370   16.4460 N.am      2 SEC2        0.0000 
     20 N          16.5530   29.5910   15.9700 N.am      8 SEL2        0.0000 
     21 N          13.7990   29.6830   16.9220 N.am      5 SEP2        0.0000 
     22 N          16.1135   30.7185   16.6340 N.am      2 SEC2        0.0000 
     23 N          15.5770   30.2305   15.2340 N.am      2 SEC2        0.0000 
     24 N          14.6010   30.8700   14.4980 N.am      5 SEP2        0.0000 
     25 N          22.0395   31.6990   15.5900 N.am      2 SEC2        0.0000 
     26 N          20.9060   30.7840   15.3030 N.am      8 SEL2        0.0000 
     27 N          23.1730   32.6140   15.8770 N.am      5 SEP2        0.0000 
     28 N          18.6690   31.3100   17.5125 N.am      2 SEC2        0.0000 
     29 N          18.5480   30.8430   15.8760 N.am      8 SEL2        0.0000 
     30 N          18.7900   31.7770   19.1490 N.am      5 SEP2        0.0000 
     31 N          21.4960   32.6995   16.0305 N.am      2 SEC2        0.0000 
     32 N          19.8190   32.7850   16.1840 N.am      8 SEL2        0.0000 
     33 CA         17.4260   33.9485   15.4105 C.3       3 GLC5        0.0000 
     34 CA         19.0440   33.9460   16.1220 C.3       9 GLL5        0.0000 
     35 CA         15.8080   33.9510   14.6990 C.3       6 GLP5        0.0000 
     36 CA         18.1320   34.3125   18.7305 C.3       3 GLC5        0.0000 
     37 CA         18.4780   35.9510   17.7680 C.3       9 GLL5        0.0000 
     38 CA         17.7860   32.6740   19.6930 C.3       6 GLP5        0.0000 
     39 N          19.2905   38.7245   18.9125 N.am      2 SEC2        0.0000 
     40 N          18.9890   38.3780   17.7420 N.am      8 SEL2        0.0000 
     41 N          19.5920   39.0710   20.0830 N.am      5 SEP2        0.0000 
     42 O          18.1590   39.0455   17.1050 O.2       1 ALC1        0.0000 
     43 O          18.9890   38.3780   17.7420 O.2       7 ALL1        0.0000 
     44 O          17.3290   39.7130   16.4680 O.2       4 ALP1        0.0000 
     45 CA         21.9735   35.3775   16.4075 C.3       3 GLC5        0.0000 
     46 CA         20.6430   36.7120   17.1460 C.3       9 GLL5        0.0000 
     47 CA         23.3040   34.0430   15.6690 C.3       6 GLP5        0.0000 
     48 N          23.3175   37.4315   13.3085 N.am      2 SEC2        0.0000 
     49 N          22.3900   38.4240   14.4060 N.am      8 SEL2        0.0000 
     50 N          24.2450   36.4390   12.2110 N.am      5 SEP2        0.0000 
     51 CA         23.4210   41.4440   15.9985 C.3       3 GLC5        0.0000 
     52 CA         24.0950   39.7190   15.8320 C.3       9 GLL5        0.0000 
     53 CA         22.7470   43.1690   16.1650 C.3       6 GLP5        0.0000 
     54 CA         25.7895   40.8935   16.2585 C.3       3 GLC5        0.0000 
     55 CA         27.4840   42.0680   16.6850 C.3       6 GLP5        0.0000 
     56 O          24.7895   42.1315   15.1385 O.2       1 ALC1        0.0000 
     57 O          24.6500   40.4220   14.8740 O.2       7 ALL1        0.0000 
     58 O          24.9290   43.8410   15.4030 O.2       4 ALP1        0.0000 
     59 N          25.6565   40.6355   17.4205 N.am      2 SEC2        0.0000 
     60 N          24.4910   39.8900   17.1100 N.am      8 SEL2        0.0000 
     61 N          26.8220   41.3810   17.7310 N.am      5 SEP2        0.0000 
     62 CA         22.1295   39.7525   18.9055 C.3       3 GLC5        0.0000 
     63 CA         23.8880   39.2420   18.0840 C.3       9 GLL5        0.0000 
     64 CA         20.3710   40.2630   19.7270 C.3       6 GLP5        0.0000 
     65 CA         24.1005   37.1125   18.6360 C.3       3 GLC5        0.0000 
     66 CA         24.3130   34.9830   19.1880 C.3       6 GLP5        0.0000 
     67 CA         25.1355   39.0205   19.4095 C.3       3 GLC5        0.0000 
     68 CA         26.3830   38.7990   20.7350 C.3       6 GLP5        0.0000 
     69 CA         21.4350   39.2535   18.1945 C.3       3 GLC5        0.0000 
     70 CA         22.4990   38.2440   16.6620 C.3       9 GLL5        0.0000 
     71 CA         22.9015   36.1435   16.1655 C.3       3 GLC5        0.0000 
     72 CA         18.5105   33.5173   18.2120 C.3       3 GLC5        0.0000 
     73 CA         19.4260   34.7750   17.3400 C.3       9 GLL5        0.0000 
     74 CA         21.2695   34.2018   16.2000 C.3       3 GLC5        0.0000 
     75 CA         17.2957   35.7465   16.2107 C.3       3 GLC5        0.0000 
     76 CA         15.5470   35.2430   15.1260 C.3       6 GLP5        0.0000 
     77 CA         20.1305   38.5938   18.4093 C.3       3 GLC5        0.0000 
     78 CA         19.1370   37.1370   17.0370 C.3       9 GLL5        0.0000 
     79 CA         21.7385   40.1887   15.7170 C.3       3 GLC5        0.0000 
     80 CA         20.7070   41.8330   15.3170 C.3       6 GLP5        0.0000 
     81 CA         25.0110   38.5460   14.4995 C.3       3 GLC5        0.0000 
     82 CA         23.0410   38.8450   15.5720 C.3       9 GLL5        0.0000 
     83 CA         26.4540   37.8100   13.2970 C.3       6 GLP5        0.0000 
@<TRIPOS>BOND
@<TRIPOS>SUBSTRUCTURE
     1 ALC1       42 GROUP        1 X    ALC  0     ROOT ALC X 1
     2 SEC2        1 GROUP        1 X    SEC  0     **** SEC X 2
     3 GLC5       33 GROUP        1 X    GLC  0     **** GLC X 6
     4 ALP1       44 GROUP        1 Y    ALP  0     ROOT ALP Y 8
     5 SEP2        3 GROUP        1 Y    SEP  0     **** SEP Y 9
     6 GLP5       35 GROUP        1 Y    GLP  0     **** GLP Y 13
     7 ALL1       43 GROUP        1 Z    ALL  0     ROOT ALL Z 15
     8 SEL2        2 GROUP        1 Z    SEL  0     **** SEL Z 16
     9 GLL5       34 GROUP        1 Z    GLL  0     **** GLL Z 20
@<TRIPOS>SET

