#    Name: 1ngi_ANP_1_ligand
#    Modification time : Mon Mar 24 18:13:00 2014

@<TRIPOS>MOLECULE
1ngi_ANP_1_ligand
   43    45     1     0     0
SMALL
NO_CHARGES


@<TRIPOS>ATOM
      1 PG         17.6910   28.3930   18.6950 P.3       1 ANP486      0.0000 
      2 O1G        18.7170   28.2840   19.7360 O.co2     1 ANP486      0.0000 
      3 O2G        17.1250   27.1050   18.2760 O.co2     1 ANP486      0.0000 
      4 O3G        16.7810   29.5580   18.9080 O.co2     1 ANP486      0.0000 
      5 PB         18.0120   29.3410   15.9530 P.3       1 ANP486      0.0000 
      6 O1B        16.5530   29.5910   15.9700 O.co2     1 ANP486      0.0000 
      7 O2B        18.5580   28.3760   14.9820 O.co2     1 ANP486      0.0000 
      8 N3B        18.4340   28.8810   17.4080 N.4       1 ANP486      0.0000 
      9 PA         19.7090   31.6290   15.1730 P.3       1 ANP486      0.0000 
     10 O1A        20.9060   30.7840   15.3030 O.co2     1 ANP486      0.0000 
     11 O2A        19.3380   32.2070   13.8730 O.co2     1 ANP486      0.0000 
     12 O3A        18.5480   30.8430   15.8760 O.3       1 ANP486      0.0000 
     13 O5'        19.8190   32.7850   16.1840 O.3       1 ANP486      0.0000 
     14 C5'        19.0440   33.9460   16.1220 C.3       1 ANP486      0.0000 
     15 C4'        19.4260   34.7750   17.3400 C.3       1 ANP486      0.0000 
     16 O4'        20.7170   35.3070   16.9490 O.3       1 ANP486      0.0000 
     17 C3'        18.4780   35.9510   17.7680 C.3       1 ANP486      0.0000 
     18 O3'        18.5650   36.0290   19.2130 O.3       1 ANP486      0.0000 
     19 C2'        19.1370   37.1370   17.0370 C.3       1 ANP486      0.0000 
     20 O2'        18.9890   38.3780   17.7420 O.3       1 ANP486      0.0000 
     21 C1'        20.6430   36.7120   17.1460 C.3       1 ANP486      0.0000 
     22 N9         21.4990   37.4430   16.2030 N.pl3     1 ANP486      0.0000 
     23 C8         21.4830   37.5870   14.8470 C.2       1 ANP486      0.0000 
     24 N7         22.3900   38.4240   14.4060 N.2       1 ANP486      0.0000 
     25 C5         23.0410   38.8450   15.5720 C.ar      1 ANP486      0.0000 
     26 C6         24.0950   39.7190   15.8320 C.ar      1 ANP486      0.0000 
     27 N6         24.6500   40.4220   14.8740 N.pl3     1 ANP486      0.0000 
     28 N1         24.4910   39.8900   17.1100 N.ar      1 ANP486      0.0000 
     29 C2         23.8880   39.2420   18.0840 C.ar      1 ANP486      0.0000 
     30 N3         22.8710   38.3900   17.9780 N.ar      1 ANP486      0.0000 
     31 C4         22.4990   38.2440   16.6620 C.ar      1 ANP486      0.0000 
     32 H          17.9781   33.7449   16.1799 H         1 ANP486      0.0000 
     33 H          19.2492   34.5431   15.2380 H         1 ANP486      0.0000 
     34 H          19.5696   34.1104   18.1790 H         1 ANP486      0.0000 
     35 H          17.5460   35.7570   17.3833 H         1 ANP486      0.0000 
     36 H          18.8783   37.1329   16.0462 H         1 ANP486      0.0000 
     37 H          20.9414   36.9576   18.1760 H         1 ANP486      0.0000 
     38 H          20.8321   37.0903   14.2704 H         1 ANP486      0.0000 
     39 H          25.3908   41.0343   15.1501 H         1 ANP486      0.0000 
     40 H          24.2816   40.2814   13.9550 H         1 ANP486      0.0000 
     41 H          24.2628   39.4210   19.1030 H         1 ANP486      0.0000 
     42 H          18.6660   37.0034   19.4139 H         1 ANP486      0.0000 
     43 H          18.0413   38.6545   17.5827 H         1 ANP486      0.0000 
@<TRIPOS>BOND
     1    2    1 ar   
     2    3    1 ar   
     3    4    1 ar   
     4    8    1 1    
     5    6    5 ar   
     6    7    5 ar   
     7    8    5 1    
     8   12    5 1    
     9   10    9 ar   
    10   11    9 ar   
    11   12    9 1    
    12   13    9 1    
    13   14   13 1    
    14   15   14 1    
    15   32   14 1    
    16   33   14 1    
    17   16   15 1    
    18   17   15 1    
    19   34   15 1    
    20   21   16 1    
    21   18   17 1    
    22   19   17 1    
    23   35   17 1    
    24   42   18 1    
    25   20   19 1    
    26   21   19 1    
    27   36   19 1    
    28   43   20 1    
    29   22   21 1    
    30   37   21 1    
    31   23   22 1    
    32   31   22 1    
    33   24   23 2    
    34   38   23 1    
    35   25   24 1    
    36   26   25 ar   
    37   31   25 ar   
    38   27   26 1    
    39   28   26 ar   
    40   39   27 1    
    41   40   27 1    
    42   29   28 ar   
    43   30   29 ar   
    44   41   29 1    
    45   31   30 ar   
@<TRIPOS>SUBSTRUCTURE
     1 ANP486      1 GROUP   
@<TRIPOS>SET

