#    Name: 4ach_KDI_2_INTS_M
#    Modification time : Tue Mar 25 05:29:47 2014

@<TRIPOS>MOLECULE
4ach_KDI_2_INTS_M
   50     0     9     0     0
SMALL
NO_CHARGES


@<TRIPOS>ATOM
      1 CA         25.2275   66.0830   77.1390 C.3       3 GLC5        0.0000 
      2 CA         27.1190   65.4430   77.2160 C.3       9 GLL5        0.0000 
      3 CA         23.3360   66.7230   77.0620 C.3       6 GLP5        0.0000 
      4 CA         27.4805   60.8755   81.9990 C.3       3 GLC5        0.0000 
      5 CA         25.9850   61.2860   80.5200 C.3       9 GLL5        0.0000 
      6 CA         28.9760   60.4650   83.4780 C.3       6 GLP5        0.0000 
      7 CA         20.1440   63.2375   82.0985 C.3       3 GLC5        0.0000 
      8 CA         22.0550   62.2620   82.2670 C.3       9 GLL5        0.0000 
      9 CA         18.2330   64.2130   81.9300 C.3       6 GLP5        0.0000 
     10 CA         21.4575   63.4335   83.9675 C.3       3 GLC5        0.0000 
     11 CA         20.8600   64.6050   85.6680 C.3       6 GLP5        0.0000 
     12 CA         22.9805   62.2815   84.3145 C.3       3 GLC5        0.0000 
     13 CA         23.9060   62.3010   86.3620 C.3       6 GLP5        0.0000 
     14 CA         22.0205   60.5135   83.2505 C.3       3 GLC5        0.0000 
     15 CA         21.9860   58.7650   84.2340 C.3       6 GLP5        0.0000 
     16 N          21.8170   62.5540   84.4045 N.am      2 SEC2        0.0000 
     17 N          20.9350   62.1580   82.9690 N.am      8 SEL2        0.0000 
     18 N          22.6990   62.9500   85.8400 N.am      5 SEP2        0.0000 
     19 CA         17.9855   59.3750   77.8410 C.3       3 GLC5        0.0000 
     20 CA         18.3160   57.8930   79.3220 C.3       9 GLL5        0.0000 
     21 CA         17.6550   60.8570   76.3600 C.3       6 GLP5        0.0000 
     22 CA         24.6885   57.7345   79.7640 C.3       3 GLC5        0.0000 
     23 CA         22.6030   57.7860   79.0090 C.3       9 GLL5        0.0000 
     24 CA         26.7740   57.6830   80.5190 C.3       6 GLP5        0.0000 
     25 CA         23.1810   57.8850   80.8780 C.3       3 GLC5        0.0000 
     26 CA         23.7590   57.9840   82.7470 C.3       6 GLP5        0.0000 
     27 CA         21.5965   56.7715   80.5505 C.3       3 GLC5        0.0000 
     28 CA         20.5900   55.7570   82.0920 C.3       6 GLP5        0.0000 
     29 CA         18.4165   55.1500   79.0895 C.3       3 GLC5        0.0000 
     30 CA         19.1980   56.9140   78.5260 C.3       9 GLL5        0.0000 
     31 CA         17.6350   53.3860   79.6530 C.3       6 GLP5        0.0000 
     32 O          18.8145   61.9635   84.5500 O.2       1 ALC1        0.0000 
     33 O          18.8810   61.1580   83.4430 O.2       7 ALL1        0.0000 
     34 O          18.7480   62.7690   85.6570 O.2       4 ALP1        0.0000 
     35 CA         19.5600   57.6675   75.8185 C.3       3 GLC5        0.0000 
     36 CA         20.4290   57.5750   77.8690 C.3       9 GLL5        0.0000 
     37 CA         18.6910   57.7600   73.7680 C.3       6 GLP5        0.0000 
     38 CA         23.0095   63.2387   78.8997 C.3       3 GLC5        0.0000 
     39 CA         24.8650   61.6960   78.4140 C.3       9 GLL5        0.0000 
     40 CA         21.7750   64.8010   79.0690 C.3       6 GLP5        0.0000 
     41 CA         26.0814   59.4996   80.5060 C.3       3 GLC5        0.0000 
     42 CA         24.7600   61.2410   81.1550 C.3       9 GLL5        0.0000 
     43 CA         23.4910   59.6755   81.8680 C.3       3 GLC5        0.0000 
     44 CA         23.5700   61.4570   80.4350 C.3       9 GLL5        0.0000 
     45 CA         22.1326   63.3213   80.3035 C.3       3 GLC5        0.0000 
     46 CA         19.1815   62.4847   82.0362 C.3       3 GLC5        0.0000 
     47 CA         20.2350   60.3030   81.6120 C.3       9 GLL5        0.0000 
     48 CA         21.0580   59.7608   83.1882 C.3       3 GLC5        0.0000 
     49 CA         20.0250   61.2100   82.6730 C.3       9 GLL5        0.0000 
     50 CA         19.6735   56.5802   80.5080 C.3       3 GLC5        0.0000 
@<TRIPOS>BOND
@<TRIPOS>SUBSTRUCTURE
     1 ALC1       32 GROUP        1 X    ALC  0     ROOT ALC X 1
     2 SEC2       16 GROUP        1 X    SEC  0     **** SEC X 2
     3 GLC5        1 GROUP        1 X    GLC  0     **** GLC X 6
     4 ALP1       34 GROUP        1 Y    ALP  0     ROOT ALP Y 8
     5 SEP2       18 GROUP        1 Y    SEP  0     **** SEP Y 9
     6 GLP5        3 GROUP        1 Y    GLP  0     **** GLP Y 13
     7 ALL1       33 GROUP        1 Z    ALL  0     ROOT ALL Z 15
     8 SEL2       17 GROUP        1 Z    SEL  0     **** SEL Z 16
     9 GLL5        2 GROUP        1 Z    GLL  0     **** GLL Z 20
@<TRIPOS>SET

