#    Name: 4ach_KDI_2_ligand
#    Modification time : Tue Mar 25 05:29:47 2014

@<TRIPOS>MOLECULE
4ach_KDI_2_ligand
   60    62     1     0     0
SMALL
NO_CHARGES


@<TRIPOS>ATOM
      1 C1         28.0400   67.4930   78.1150 C.3       1 KDI1386     0.0000 
      2 N2         28.1850   66.0320   78.0400 N.4       1 KDI1386     0.0000 
      3 C3         28.2120   65.4240   79.3800 C.3       1 KDI1386     0.0000 
      4 C4         27.1190   65.4430   77.2160 C.3       1 KDI1386     0.0000 
      5 C5         27.3680   63.9380   76.9790 C.3       1 KDI1386     0.0000 
      6 N6         27.9100   63.2340   78.1800 N.pl3     1 KDI1386     0.0000 
      7 S7         27.6450   61.5940   78.3680 S.o2      1 KDI1386     0.0000 
      8 O8         27.5440   61.0280   77.0690 O.2       1 KDI1386     0.0000 
      9 O9         28.5630   61.1050   79.3530 O.2       1 KDI1386     0.0000 
     10 C10        26.0500   61.4970   79.1420 C.ar      1 KDI1386     0.0000 
     11 C11        24.8650   61.6960   78.4140 C.ar      1 KDI1386     0.0000 
     12 C12        23.6230   61.6570   79.0470 C.ar      1 KDI1386     0.0000 
     13 C13        23.5700   61.4570   80.4350 C.ar      1 KDI1386     0.0000 
     14 C14        24.7600   61.2410   81.1550 C.ar      1 KDI1386     0.0000 
     15 C15        25.9850   61.2860   80.5200 C.ar      1 KDI1386     0.0000 
     16 C16        22.2810   61.3850   81.1830 C.ar      1 KDI1386     0.0000 
     17 C17        22.0550   62.2620   82.2670 C.ar      1 KDI1386     0.0000 
     18 N18        20.9350   62.1580   82.9690 N.ar      1 KDI1386     0.0000 
     19 C19        20.0250   61.2100   82.6730 C.ar      1 KDI1386     0.0000 
     20 C20        20.2350   60.3030   81.6120 C.ar      1 KDI1386     0.0000 
     21 N21        21.3820   60.4230   80.9170 N.ar      1 KDI1386     0.0000 
     22 C22        19.2370   59.2520   81.2550 C.2       1 KDI1386     0.0000 
     23 O23        18.5010   58.7430   82.0920 O.2       1 KDI1386     0.0000 
     24 N24        19.1680   58.9180   79.9440 N.am      1 KDI1386     0.0000 
     25 C25        18.3160   57.8930   79.3220 C.3       1 KDI1386     0.0000 
     26 C27        22.6030   57.7860   79.0090 C.3       1 KDI1386     0.0000 
     27 C30        19.1980   56.9140   78.5260 C.3       1 KDI1386     0.0000 
     28 N31        18.8810   61.1580   83.4430 N.pl3     1 KDI1386     0.0000 
     29 C6         28.6800   63.9650   79.2310 C.3       1 KDI1386     0.0000 
     30 C28        20.4290   57.5750   77.8690 C.3       1 KDI1386     0.0000 
     31 O29        21.6360   56.9480   78.3530 O.3       1 KDI1386     0.0000 
     32 H          29.1536   65.8113   77.5470 H         1 KDI1386     0.0000 
     33 H          27.2260   65.4215   79.8263 H         1 KDI1386     0.0000 
     34 H          28.9083   65.9405   80.0279 H         1 KDI1386     0.0000 
     35 H          27.0654   65.9337   76.2388 H         1 KDI1386     0.0000 
     36 H          26.1447   65.5507   77.7036 H         1 KDI1386     0.0000 
     37 H          28.0670   63.8361   76.1341 H         1 KDI1386     0.0000 
     38 H          26.4161   63.4786   76.6696 H         1 KDI1386     0.0000 
     39 H          24.9190   61.8727   77.3998 H         1 KDI1386     0.0000 
     40 H          22.7629   61.7718   78.5122 H         1 KDI1386     0.0000 
     41 H          24.7037   61.0480   82.1670 H         1 KDI1386     0.0000 
     42 H          26.8546   61.1646   81.0572 H         1 KDI1386     0.0000 
     43 H          22.7807   62.9655   82.4797 H         1 KDI1386     0.0000 
     44 H          19.7941   59.4400   79.2396 H         1 KDI1386     0.0000 
     45 H          17.6030   58.3435   78.6353 H         1 KDI1386     0.0000 
     46 H          17.7746   57.3265   80.0762 H         1 KDI1386     0.0000 
     47 H          18.5893   56.4431   77.7415 H         1 KDI1386     0.0000 
     48 H          19.5426   56.1167   79.1992 H         1 KDI1386     0.0000 
     49 H          18.2157   60.4536   83.1955 H         1 KDI1386     0.0000 
     50 H          18.8168   61.8291   84.1815 H         1 KDI1386     0.0000 
     51 H          28.5638   63.4652   80.2000 H         1 KDI1386     0.0000 
     52 H          29.7478   63.9694   78.9819 H         1 KDI1386     0.0000 
     53 H          20.4021   58.6397   78.1127 H         1 KDI1386     0.0000 
     54 H          20.3244   57.4667   76.7868 H         1 KDI1386     0.0000 
     55 H          28.7955   67.9160   78.6153 H         1 KDI1386     0.0000 
     56 H          28.0193   67.9113   77.2069 H         1 KDI1386     0.0000 
     57 H          27.1954   67.7590   78.5796 H         1 KDI1386     0.0000 
     58 H          23.4036   57.2662   79.3070 H         1 KDI1386     0.0000 
     59 H          22.9331   58.5133   78.4073 H         1 KDI1386     0.0000 
     60 H          22.2216   58.2278   79.8210 H         1 KDI1386     0.0000 
@<TRIPOS>BOND
     1    2    1 1    
     2   55    1 1    
     3   56    1 1    
     4   57    1 1    
     5    3    2 1    
     6    4    2 1    
     7   32    2 1    
     8   29    3 1    
     9   33    3 1    
    10   34    3 1    
    11    5    4 1    
    12   35    4 1    
    13   36    4 1    
    14    6    5 1    
    15   37    5 1    
    16   38    5 1    
    17    7    6 1    
    18   29    6 1    
    19    8    7 2    
    20    9    7 2    
    21   10    7 1    
    22   11   10 ar   
    23   15   10 ar   
    24   12   11 ar   
    25   39   11 1    
    26   13   12 ar   
    27   40   12 1    
    28   14   13 ar   
    29   16   13 1    
    30   15   14 ar   
    31   41   14 1    
    32   42   15 1    
    33   17   16 ar   
    34   21   16 ar   
    35   18   17 ar   
    36   43   17 1    
    37   19   18 ar   
    38   20   19 ar   
    39   28   19 1    
    40   21   20 ar   
    41   22   20 1    
    42   23   22 2    
    43   24   22 am   
    44   25   24 1    
    45   44   24 1    
    46   27   25 1    
    47   45   25 1    
    48   46   25 1    
    49   31   26 1    
    50   58   26 1    
    51   59   26 1    
    52   60   26 1    
    53   30   27 1    
    54   47   27 1    
    55   48   27 1    
    56   49   28 1    
    57   50   28 1    
    58   51   29 1    
    59   52   29 1    
    60   31   30 1    
    61   53   30 1    
    62   54   30 1    
@<TRIPOS>SUBSTRUCTURE
     1 KDI1386     1 GROUP   
@<TRIPOS>SET

