#    Name: 3dk7_SX7_2_INTS_M
#    Modification time : Mon Mar 24 23:33:20 2014

@<TRIPOS>MOLECULE
3dk7_SX7_2_INTS_M
   74     0     9     0     0
SMALL
NO_CHARGES


@<TRIPOS>ATOM
      1 N         -21.8575   79.8080   79.2990 N.am      2 SEC2        0.0000 
      2 N         -21.0520   81.0380   79.6620 N.am      8 SEL2        0.0000 
      3 N         -22.6630   78.5780   78.9360 N.am      5 SEP2        0.0000 
      4 CA        -22.0460   82.4835   68.1685 C.3       3 GLC5        0.0000 
      5 CA        -21.9940   81.3780   69.8040 C.3       9 GLL5        0.0000 
      6 CA        -22.0980   83.5890   66.5330 C.3       6 GLP5        0.0000 
      7 CA        -24.1745   78.3295   65.1260 C.3       3 GLC5        0.0000 
      8 CA        -24.5840   79.1180   66.8970 C.3       9 GLL5        0.0000 
      9 CA        -23.7650   77.5410   63.3550 C.3       6 GLP5        0.0000 
     10 CA        -26.0030   78.1855   65.9235 C.3       3 GLC5        0.0000 
     11 CA        -27.4220   77.2530   64.9500 C.3       6 GLP5        0.0000 
     12 CA        -22.9920   78.6850   73.3170 C.3       3 GLC5        0.0000 
     13 CA        -24.2000   78.8150   71.4760 C.3       9 GLL5        0.0000 
     14 CA        -21.7840   78.5550   75.1580 C.3       6 GLP5        0.0000 
     15 CA        -25.1090   77.3290   72.5345 C.3       3 GLC5        0.0000 
     16 CA        -26.0180   75.8430   73.5930 C.3       6 GLP5        0.0000 
     17 CA        -22.5555   77.6825   71.6990 C.3       3 GLC5        0.0000 
     18 CA        -20.9110   76.5500   71.9220 C.3       6 GLP5        0.0000 
     19 CA        -22.6590   85.1820   78.2360 C.3       3 GLC5        0.0000 
     20 CA        -21.2140   84.6640   79.3370 C.3       9 GLL5        0.0000 
     21 CA        -24.1040   85.7000   77.1350 C.3       6 GLP5        0.0000 
     22 CA        -18.5170   83.4575   78.1350 C.3       3 GLC5        0.0000 
     23 CA        -19.2390   83.2850   79.7990 C.3       9 GLL5        0.0000 
     24 CA        -17.7950   83.6300   76.4710 C.3       6 GLP5        0.0000 
     25 CA        -26.5635   83.0315   76.6930 C.3       3 GLC5        0.0000 
     26 CA        -24.6630   82.1120   77.3970 C.3       9 GLL5        0.0000 
     27 CA        -28.4640   83.9510   75.9890 C.3       6 GLP5        0.0000 
     28 CA        -20.4545   81.2420   74.3120 C.3       3 GLC5        0.0000 
     29 CA        -21.4530   83.1420   73.8710 C.3       9 GLL5        0.0000 
     30 CA        -19.4560   79.3420   74.7530 C.3       6 GLP5        0.0000 
     31 CA        -21.6980   85.0415   73.1255 C.3       3 GLC5        0.0000 
     32 CA        -21.9430   86.9410   72.3800 C.3       6 GLP5        0.0000 
     33 N         -20.3380   84.5825   72.4705 N.am      2 SEC2        0.0000 
     34 N         -20.9670   83.2670   72.6070 N.am      8 SEL2        0.0000 
     35 N         -19.7090   85.8980   72.3340 N.am      5 SEP2        0.0000 
     36 CA        -19.6635   83.5680   71.5975 C.3       3 GLC5        0.0000 
     37 CA        -21.5430   82.4150   71.7360 C.3       9 GLL5        0.0000 
     38 CA        -17.7840   84.7210   71.4590 C.3       6 GLP5        0.0000 
     39 CA        -21.8510   84.5740   71.3055 C.3       3 GLC5        0.0000 
     40 CA        -22.1590   86.7330   70.8750 C.3       6 GLP5        0.0000 
     41 O         -20.1770   83.0515   69.8065 O.2       1 ALC1        0.0000 
     42 O         -21.2300   82.3440   70.4070 O.2       7 ALL1        0.0000 
     43 O         -19.1240   83.7590   69.2060 O.2       4 ALP1        0.0000 
     44 CA        -22.7163   79.3388   67.3905 C.3       3 GLC5        0.0000 
     45 CA        -24.4830   80.0650   68.0810 C.3       9 GLL5        0.0000 
     46 CA        -20.8990   79.0860   67.2920 C.3       6 GLP5        0.0000 
     47 CA        -26.1502   80.5837   67.8170 C.3       3 GLC5        0.0000 
     48 CA        -27.7670   81.5760   68.1450 C.3       6 GLP5        0.0000 
     49 CA        -22.0016   79.7511   68.8487 C.3       3 GLC5        0.0000 
     50 CA        -23.8040   79.7340   70.5270 C.3       9 GLL5        0.0000 
     51 CA        -23.9521   82.1301   70.5648 C.3       3 GLC5        0.0000 
     52 CA        -24.8000   83.8440   70.7240 C.3       6 GLP5        0.0000 
     53 CA        -21.1522   80.4547   77.2545 C.3       3 GLC5        0.0000 
     54 CA        -21.9480   82.1870   76.7550 C.3       9 GLL5        0.0000 
     55 CA        -20.1530   78.7440   77.0800 C.3       6 GLP5        0.0000 
     56 CA        -23.5720   83.9120   77.7032 C.3       3 GLC5        0.0000 
     57 CA        -23.7250   82.1040   78.4400 C.3       9 GLL5        0.0000 
     58 CA        -23.9817   80.3630   78.4816 C.3       3 GLC5        0.0000 
     59 CA        -24.1120   78.6080   79.1290 C.3       6 GLP5        0.0000 
     60 CA        -24.2817   83.9180   76.9303 C.3       3 GLC5        0.0000 
     61 CA        -22.6785   80.3678   75.5198 C.3       3 GLC5        0.0000 
     62 CA        -24.2560   82.1600   76.0540 C.3       9 GLL5        0.0000 
     63 CA        -24.7225   82.9808   74.4368 C.3       3 GLC5        0.0000 
     64 CA        -22.8900   82.2010   75.7090 C.3       9 GLL5        0.0000 
     65 CA        -25.8720   83.7810   72.9920 C.3       6 GLP5        0.0000 
     66 CA        -23.2615   83.9470   76.6835 C.3       3 GLC5        0.0000 
     67 CA        -24.2965   82.8007   73.4045 C.3       3 GLC5        0.0000 
     68 CA        -22.9960   81.3930   73.3290 C.3       9 GLL5        0.0000 
     69 CA        -22.2052   80.1004   74.0328 C.3       3 GLC5        0.0000 
     70 CA        -22.4460   82.2480   74.3050 C.3       9 GLL5        0.0000 
     71 CA        -23.4188   82.8935   71.2955 C.3       3 GLC5        0.0000 
     72 CA        -20.3940   80.8354   70.9897 C.3       3 GLC5        0.0000 
     73 CA        -22.5320   81.4710   71.9980 C.3       9 GLL5        0.0000 
     74 CA        -18.5670   80.1500   70.9040 C.3       6 GLP5        0.0000 
@<TRIPOS>BOND
@<TRIPOS>SUBSTRUCTURE
     1 ALC1       41 GROUP        1 X    ALC  0     ROOT ALC X 1
     2 SEC2        1 GROUP        1 X    SEC  0     **** SEC X 2
     3 GLC5        4 GROUP        1 X    GLC  0     **** GLC X 6
     4 ALP1       43 GROUP        1 Y    ALP  0     ROOT ALP Y 8
     5 SEP2        3 GROUP        1 Y    SEP  0     **** SEP Y 9
     6 GLP5        6 GROUP        1 Y    GLP  0     **** GLP Y 13
     7 ALL1       42 GROUP        1 Z    ALL  0     ROOT ALL Z 15
     8 SEL2        2 GROUP        1 Z    SEL  0     **** SEL Z 16
     9 GLL5        5 GROUP        1 Z    GLL  0     **** GLL Z 20
@<TRIPOS>SET

