#    Name: 3dk7_SX7_2_ligand
#    Modification time : Mon Mar 24 23:33:20 2014

@<TRIPOS>MOLECULE
3dk7_SX7_2_ligand
   50    53     1     0     0
SMALL
NO_CHARGES


@<TRIPOS>ATOM
      1 O1        -21.0520   81.0380   79.6620 O.2       1 SX72        0.0000 
      2 C7        -21.9940   81.3780   69.8040 C.2       1 SX72        0.0000 
      3 C6        -22.8150   80.8190   70.7640 C.2       1 SX72        0.0000 
      4 C1        -24.5840   79.1180   66.8970 C.3       1 SX72        0.0000 
      5 N1        -24.5100   79.4150   69.3860 N.pl3     1 SX72        0.0000 
      6 C5        -23.8040   79.7340   70.5270 C.2       1 SX72        0.0000 
      7 C4        -24.2000   78.8150   71.4760 C.2       1 SX72        0.0000 
      8 C3        -25.1340   77.9920   70.8280 C.2       1 SX72        0.0000 
      9 C2        -24.4830   80.0650   68.0810 C.3       1 SX72        0.0000 
     10 C19       -21.3080   82.1340   79.1580 C.2       1 SX72        0.0000 
     11 N6        -20.6680   83.3250   79.5370 N.am      1 SX72        0.0000 
     12 C21       -21.2140   84.6640   79.3370 C.3       1 SX72        0.0000 
     13 C20       -19.2390   83.2850   79.7990 C.3       1 SX72        0.0000 
     14 C17       -22.3550   82.1440   78.1030 C.ar      1 SX72        0.0000 
     15 C16       -23.7250   82.1040   78.4400 C.ar      1 SX72        0.0000 
     16 N5        -24.1910   82.0560   79.7700 N.pl3     1 SX72        0.0000 
     17 C15       -24.6630   82.1120   77.3970 C.ar      1 SX72        0.0000 
     18 C14       -24.2560   82.1600   76.0540 C.ar      1 SX72        0.0000 
     19 C18       -21.9480   82.1870   76.7550 C.ar      1 SX72        0.0000 
     20 C13       -22.8900   82.2010   75.7090 C.ar      1 SX72        0.0000 
     21 C10       -22.4460   82.2480   74.3050 C.ar      1 SX72        0.0000 
     22 C9        -21.4530   83.1420   73.8710 C.ar      1 SX72        0.0000 
     23 N4        -20.9670   83.2670   72.6070 N.ar      1 SX72        0.0000 
     24 C11       -22.9960   81.3930   73.3290 C.ar      1 SX72        0.0000 
     25 C12       -22.5320   81.4710   71.9980 C.ar      1 SX72        0.0000 
     26 C8        -21.5430   82.4150   71.7360 C.ar      1 SX72        0.0000 
     27 N3        -21.2300   82.3440   70.4070 N.pl3     1 SX72        0.0000 
     28 N2        -25.3310   78.3510   69.5610 N.2       1 SX72        0.0000 
     29 H         -21.9675   81.1311   68.8838 H         1 SX72        0.0000 
     30 H         -23.9179   78.7436   72.3585 H         1 SX72        0.0000 
     31 H         -25.5734   77.2427   71.2918 H         1 SX72        0.0000 
     32 H         -25.3134   80.8039   67.9999 H         1 SX72        0.0000 
     33 H         -23.5476   80.6597   67.9647 H         1 SX72        0.0000 
     34 H         -25.1834   82.0180   79.8874 H         1 SX72        0.0000 
     35 H         -23.4895   82.0641   80.4826 H         1 SX72        0.0000 
     36 H         -25.6704   82.0821   77.6201 H         1 SX72        0.0000 
     37 H         -24.9656   82.1654   75.3069 H         1 SX72        0.0000 
     38 H         -20.9420   82.2086   76.5309 H         1 SX72        0.0000 
     39 H         -21.0445   83.7889   74.6317 H         1 SX72        0.0000 
     40 H         -23.7212   80.7250   73.5803 H         1 SX72        0.0000 
     41 H         -20.5712   82.8902   69.9588 H         1 SX72        0.0000 
     42 H         -24.5624   79.6088   66.0260 H         1 SX72        0.0000 
     43 H         -23.8305   78.4607   66.8818 H         1 SX72        0.0000 
     44 H         -25.4331   78.5901   66.9150 H         1 SX72        0.0000 
     45 H         -20.5976   85.3718   79.6820 H         1 SX72        0.0000 
     46 H         -21.3725   84.8597   78.3692 H         1 SX72        0.0000 
     47 H         -22.0886   84.7825   79.8071 H         1 SX72        0.0000 
     48 H         -18.7222   82.9901   78.9953 H         1 SX72        0.0000 
     49 H         -18.8845   84.1822   80.0624 H         1 SX72        0.0000 
     50 H         -19.0149   82.6521   80.5401 H         1 SX72        0.0000 
@<TRIPOS>BOND
     1   10    1 2    
     2    3    2 2    
     3   27    2 1    
     4   29    2 1    
     5    6    3 1    
     6   25    3 1    
     7    9    4 1    
     8   42    4 1    
     9   43    4 1    
    10   44    4 1    
    11    6    5 1    
    12    9    5 1    
    13   28    5 1    
    14    7    6 2    
    15    8    7 1    
    16   30    7 1    
    17   28    8 2    
    18   31    8 1    
    19   32    9 1    
    20   33    9 1    
    21   11   10 am   
    22   14   10 1    
    23   12   11 1    
    24   13   11 1    
    25   45   12 1    
    26   46   12 1    
    27   47   12 1    
    28   48   13 1    
    29   49   13 1    
    30   50   13 1    
    31   15   14 ar   
    32   19   14 ar   
    33   16   15 1    
    34   17   15 ar   
    35   34   16 1    
    36   35   16 1    
    37   18   17 ar   
    38   36   17 1    
    39   20   18 ar   
    40   37   18 1    
    41   20   19 ar   
    42   38   19 1    
    43   21   20 1    
    44   22   21 ar   
    45   24   21 ar   
    46   23   22 ar   
    47   39   22 1    
    48   26   23 ar   
    49   25   24 ar   
    50   40   24 1    
    51   26   25 ar   
    52   27   26 1    
    53   41   27 1    
@<TRIPOS>SUBSTRUCTURE
     1 SX72        1 GROUP   
@<TRIPOS>SET

