#    Name: 2yq5_NAD_2_INTS_M
#    Modification time : Tue Mar 25 09:34:29 2014

@<TRIPOS>MOLECULE
2yq5_NAD_2_INTS_M
   80     0     9     0     0
SMALL
NO_CHARGES


@<TRIPOS>ATOM
      1 N         -18.0395   11.9445   40.7725 N.am      2 SEC2        0.0000 
      2 N         -19.4900   11.5950   41.1450 N.am      8 SEL2        0.0000 
      3 N         -16.5890   12.2940   40.4000 N.am      5 SEP2        0.0000 
      4 N         -19.2625   13.0470   40.4820 N.am      2 SEC2        0.0000 
      5 N         -19.0350   14.4990   39.8190 N.am      5 SEP2        0.0000 
      6 CA        -19.6715    6.5825   43.6700 C.3       3 GLC5        0.0000 
      7 CA        -19.9170    8.0880   42.0330 C.3       9 GLL5        0.0000 
      8 CA        -19.4260    5.0770   45.3070 C.3       6 GLP5        0.0000 
      9 CA        -17.7740    5.5415   41.6820 C.3       3 GLC5        0.0000 
     10 CA        -19.2920    7.0250   41.1270 C.3       9 GLL5        0.0000 
     11 CA        -16.2560    4.0580   42.2370 C.3       6 GLP5        0.0000 
     12 O         -17.9900    5.9670   38.6310 O.2       1 ALC1        0.0000 
     13 O         -18.8450    7.0710   38.7960 O.2       7 ALL1        0.0000 
     14 O         -17.1350    4.8630   38.4660 O.2       4 ALP1        0.0000 
     15 O         -19.5740    4.5070   38.0030 O.2       1 ALC1        0.0000 
     16 O         -20.4760    5.4690   38.2490 O.2       7 ALL1        0.0000 
     17 O         -18.6720    3.5450   37.7570 O.2       4 ALP1        0.0000 
     18 O         -18.8055    5.1660   38.3575 O.2       1 ALC1        0.0000 
     19 CA        -18.0410    4.5170   41.3540 C.3       3 GLC5        0.0000 
     20 CA        -19.8260    4.9760   40.4710 C.3       9 GLL5        0.0000 
     21 CA        -20.9465    5.4265   42.2285 C.3       3 GLC5        0.0000 
     22 CA        -22.0670    5.8770   43.9860 C.3       6 GLP5        0.0000 
     23 CA        -21.2650   -0.0275   40.2495 C.3       3 GLC5        0.0000 
     24 CA        -21.0280    0.6250   41.9980 C.3       9 GLL5        0.0000 
     25 CA        -21.5020   -0.6800   38.5010 C.3       6 GLP5        0.0000 
     26 CA        -20.5360   -0.1395   43.9590 C.3       3 GLC5        0.0000 
     27 CA        -20.0440   -0.9040   45.9200 C.3       6 GLP5        0.0000 
     28 CA        -17.5905    0.3965   43.0825 C.3       3 GLC5        0.0000 
     29 CA        -18.8490    0.8610   41.6000 C.3       9 GLL5        0.0000 
     30 CA        -16.3320   -0.0680   44.5650 C.3       6 GLP5        0.0000 
     31 CA        -17.5525    2.4595   41.9185 C.3       3 GLC5        0.0000 
     32 CA        -17.8460    1.1005   39.9260 C.3       3 GLC5        0.0000 
     33 CA        -16.8430    1.3400   38.2520 C.3       6 GLP5        0.0000 
     34 CA        -20.1755    0.0905   40.0505 C.3       3 GLC5        0.0000 
     35 CA        -18.8270    1.8545   43.1545 C.3       3 GLC5        0.0000 
     36 CA        -18.8050    2.8480   44.7090 C.3       6 GLP5        0.0000 
     37 CA        -18.2190    3.3520   41.7375 C.3       3 GLC5        0.0000 
     38 CA        -20.1820    2.6460   41.2380 C.3       9 GLL5        0.0000 
     39 N         -16.3405   11.9130   43.1965 N.am      2 SEC2        0.0000 
     40 N         -17.6260   11.1870   43.5980 N.am      8 SEL2        0.0000 
     41 N         -15.0550   12.6390   42.7950 N.am      5 SEP2        0.0000 
     42 CA        -18.2700    8.4040   48.7010 C.3       3 GLC5        0.0000 
     43 CA        -18.9760    9.6400   47.2060 C.3       9 GLL5        0.0000 
     44 CA        -17.5640    7.1680   50.1960 C.3       6 GLP5        0.0000 
     45 CA        -21.5635    8.2420   46.8265 C.3       3 GLC5        0.0000 
     46 CA        -20.4390    9.7770   47.4740 C.3       9 GLL5        0.0000 
     47 CA        -22.6880    6.7070   46.1790 C.3       6 GLP5        0.0000 
     48 O         -20.6245    7.3995   47.7625 O.2       1 ALC1        0.0000 
     49 O         -20.8530    8.7680   48.3330 O.2       7 ALL1        0.0000 
     50 O         -20.3960    6.0310   47.1920 O.2       4 ALP1        0.0000 
     51 CA        -17.9835   12.0175   47.8460 C.3       3 GLC5        0.0000 
     52 CA        -19.2840   10.9300   49.0820 C.3       9 GLL5        0.0000 
     53 CA        -16.6830   13.1050   46.6100 C.3       6 GLP5        0.0000 
     54 CA        -18.3875    9.5975   50.1605 C.3       3 GLC5        0.0000 
     55 CA        -17.4910    8.2650   51.2390 C.3       6 GLP5        0.0000 
     56 CA        -17.9360   10.3170   51.0455 C.3       3 GLC5        0.0000 
     57 CA        -18.3810   12.3690   50.8520 C.3       9 GLL5        0.0000 
     58 O         -16.1060   11.4490   52.3770 O.2       1 ALC1        0.0000 
     59 O         -16.5910   12.6630   52.9300 O.2       7 ALL1        0.0000 
     60 O         -15.6210   10.2350   51.8240 O.2       4 ALP1        0.0000 
     61 O         -15.9790   12.6745   54.4560 O.2       1 ALC1        0.0000 
     62 O         -15.3670   12.6860   55.9820 O.2       4 ALP1        0.0000 
     63 CA        -17.7440   16.4560   51.8135 C.3       3 GLC5        0.0000 
     64 CA        -18.3290   14.7070   50.7110 C.3       9 GLL5        0.0000 
     65 CA        -17.1590   18.2050   52.9160 C.3       6 GLP5        0.0000 
     66 CA        -17.2265   15.3895   49.3840 C.3       3 GLC5        0.0000 
     67 CA        -18.9110   14.6160   49.4860 C.3       9 GLL5        0.0000 
     68 CA        -15.5420   16.1630   49.2820 C.3       6 GLP5        0.0000 
     69 CA        -20.8358    6.7168   42.7830 C.3       3 GLC5        0.0000 
     70 CA        -18.2326    8.6751   40.1605 C.3       3 GLC5        0.0000 
     71 CA        -16.7310   10.0110   39.6590 C.3       6 GLP5        0.0000 
     72 CA        -21.3275    2.0168   39.7140 C.3       3 GLC5        0.0000 
     73 CA        -21.9480    1.7570   38.0050 C.3       6 GLP5        0.0000 
     74 CA        -19.7305    2.4020   43.1148 C.3       3 GLC5        0.0000 
     75 CA        -21.2320    1.9070   41.6080 C.3       9 GLL5        0.0000 
     76 CA        -17.7825   11.4582   46.5358 C.3       3 GLC5        0.0000 
     77 CA        -18.7880    9.9830   45.7170 C.3       9 GLL5        0.0000 
     78 CA        -16.6175   14.4594   50.5278 C.3       3 GLC5        0.0000 
     79 CA        -14.9570   15.0800   50.1360 C.3       6 GLP5        0.0000 
     80 CA        -17.8702   13.5557   47.9165 C.3       3 GLC5        0.0000 
@<TRIPOS>BOND
@<TRIPOS>SUBSTRUCTURE
     1 ALC1       12 GROUP        1 X    ALC  0     ROOT ALC X 1
     2 SEC2        1 GROUP        1 X    SEC  0     **** SEC X 2
     3 GLC5        6 GROUP        1 X    GLC  0     **** GLC X 6
     4 ALP1       14 GROUP        1 Y    ALP  0     ROOT ALP Y 8
     5 SEP2        3 GROUP        1 Y    SEP  0     **** SEP Y 9
     6 GLP5        8 GROUP        1 Y    GLP  0     **** GLP Y 13
     7 ALL1       13 GROUP        1 Z    ALL  0     ROOT ALL Z 15
     8 SEL2        2 GROUP        1 Z    SEL  0     **** SEL Z 16
     9 GLL5        7 GROUP        1 Z    GLL  0     **** GLL Z 20
@<TRIPOS>SET

