#    Name: 2yq5_NAD_2_ligand
#    Modification time : Tue Mar 25 09:34:29 2014

@<TRIPOS>MOLECULE
2yq5_NAD_2_ligand
   70    74     1     0     0
SMALL
NO_CHARGES


@<TRIPOS>ATOM
      1 PA        -20.1720   10.6150   41.8310 P.3       1 NAD0        0.0000 
      2 O1A       -19.4900   11.5950   41.1450 O.co2     1 NAD0        0.0000 
      3 O2A       -21.5130   10.6300   41.3770 O.co2     1 NAD0        0.0000 
      4 O5B       -19.4940    9.3440   41.6430 O.3       1 NAD0        0.0000 
      5 C5B       -19.9170    8.0880   42.0330 C.3       1 NAD0        0.0000 
      6 C4B       -19.2920    7.0250   41.1270 C.3       1 NAD0        0.0000 
      7 O4B       -19.6850    5.7890   41.5620 O.3       1 NAD0        0.0000 
      8 C3B       -19.8640    7.1220   39.7440 C.3       1 NAD0        0.0000 
      9 O3B       -18.8450    7.0710   38.7960 O.3       1 NAD0        0.0000 
     10 C2B       -20.6330    5.8650   39.5820 C.3       1 NAD0        0.0000 
     11 O2B       -20.4760    5.4690   38.2490 O.3       1 NAD0        0.0000 
     12 C1B       -19.8260    4.9760   40.4710 C.3       1 NAD0        0.0000 
     13 N9A       -20.6140    3.8320   40.9360 N.pl3     1 NAD0        0.0000 
     14 C8A       -21.9020    3.8210   41.1180 C.2       1 NAD0        0.0000 
     15 N7A       -22.2880    2.6510   41.5210 N.2       1 NAD0        0.0000 
     16 C5A       -21.2320    1.9070   41.6080 C.ar      1 NAD0        0.0000 
     17 C6A       -21.0280    0.6250   41.9980 C.ar      1 NAD0        0.0000 
     18 N6A       -22.0130   -0.1360   42.3530 N.pl3     1 NAD0        0.0000 
     19 N1A       -19.8350    0.1290   41.9840 N.ar      1 NAD0        0.0000 
     20 C2A       -18.8490    0.8610   41.6000 C.ar      1 NAD0        0.0000 
     21 N3A       -19.0090    2.0890   41.2500 N.ar      1 NAD0        0.0000 
     22 C4A       -20.1820    2.6460   41.2380 C.ar      1 NAD0        0.0000 
     23 O3        -19.9950   11.1080   43.2850 O.3       1 NAD0        0.0000 
     24 PN        -18.8560   11.7530   43.9610 P.3       1 NAD0        0.0000 
     25 O1N       -17.6260   11.1870   43.5980 O.co2     1 NAD0        0.0000 
     26 O2N       -19.0170   13.1180   44.0220 O.co2     1 NAD0        0.0000 
     27 O5D       -19.0330   11.3250   45.3130 O.3       1 NAD0        0.0000 
     28 C5D       -18.7880    9.9830   45.7170 C.3       1 NAD0        0.0000 
     29 C4D       -18.9760    9.6400   47.2060 C.3       1 NAD0        0.0000 
     30 O4D       -18.3400   10.4960   48.1360 O.3       1 NAD0        0.0000 
     31 C3D       -20.4390    9.7770   47.4740 C.3       1 NAD0        0.0000 
     32 O3D       -20.8530    8.7680   48.3330 O.3       1 NAD0        0.0000 
     33 C2D       -20.5560   10.9720   48.3070 C.3       1 NAD0        0.0000 
     34 O2D       -21.5780   10.6060   49.1490 O.3       1 NAD0        0.0000 
     35 C1D       -19.2840   10.9300   49.0820 C.3       1 NAD0        0.0000 
     36 N1N       -18.9470   12.2620   49.6320 N.pl3     1 NAD0        0.0000 
     37 C2N       -18.3810   12.3690   50.8520 C.ar      1 NAD0        0.0000 
     38 C3N       -18.0730   13.5720   51.4040 C.ar      1 NAD0        0.0000 
     39 C7N       -17.4240   13.6190   52.7460 C.2       1 NAD0        0.0000 
     40 O7N       -17.6790   14.4600   53.5750 O.2       1 NAD0        0.0000 
     41 N7N       -16.5910   12.6630   52.9300 N.am      1 NAD0        0.0000 
     42 C4N       -18.3290   14.7070   50.7110 C.ar      1 NAD0        0.0000 
     43 C5N       -18.9110   14.6160   49.4860 C.ar      1 NAD0        0.0000 
     44 C6N       -19.2040   13.3970   48.9600 C.ar      1 NAD0        0.0000 
     45 H         -21.0105    7.9634   41.9669 H         1 NAD0        0.0000 
     46 H         -19.6270    7.8391   43.0672 H         1 NAD0        0.0000 
     47 H         -18.2508    7.1524   41.0901 H         1 NAD0        0.0000 
     48 H         -20.4977    7.9398   39.6668 H         1 NAD0        0.0000 
     49 H         -21.5799    5.9727   39.9287 H         1 NAD0        0.0000 
     50 H         -18.9412    4.7141   40.0272 H         1 NAD0        0.0000 
     51 H         -22.5035    4.6016   40.9683 H         1 NAD0        0.0000 
     52 H         -22.9173    0.2907   42.3628 H         1 NAD0        0.0000 
     53 H         -21.7784   -1.0801   42.5845 H         1 NAD0        0.0000 
     54 H         -17.8623    0.4343   41.5706 H         1 NAD0        0.0000 
     55 H         -17.7387    9.6639   45.4452 H         1 NAD0        0.0000 
     56 H         -19.4368    9.2614   45.1381 H         1 NAD0        0.0000 
     57 H         -18.7217    8.6057   47.3533 H         1 NAD0        0.0000 
     58 H         -20.9809    9.8705   46.6114 H         1 NAD0        0.0000 
     59 H         -20.6660   11.8023   47.7710 H         1 NAD0        0.0000 
     60 H         -19.3975   10.2115   49.8707 H         1 NAD0        0.0000 
     61 H         -18.1687   11.4918   51.3992 H         1 NAD0        0.0000 
     62 H         -16.4956   12.0115   52.1773 H         1 NAD0        0.0000 
     63 H         -16.1143   12.6578   53.8090 H         1 NAD0        0.0000 
     64 H         -18.0862   15.6304   51.1059 H         1 NAD0        0.0000 
     65 H         -19.1323   15.4788   48.9509 H         1 NAD0        0.0000 
     66 H         -19.6416   13.3485   48.0051 H         1 NAD0        0.0000 
     67 H         -18.4352    6.1654   38.9052 H         1 NAD0        0.0000 
     68 H         -19.7986    4.7338   38.2756 H         1 NAD0        0.0000 
     69 H         -21.1346    8.0181   47.7345 H         1 NAD0        0.0000 
     70 H         -21.9431    9.7601   48.7602 H         1 NAD0        0.0000 
@<TRIPOS>BOND
     1    2    1 ar   
     2    3    1 ar   
     3    4    1 1    
     4   23    1 1    
     5    5    4 1    
     6    6    5 1    
     7   45    5 1    
     8   46    5 1    
     9    7    6 1    
    10    8    6 1    
    11   47    6 1    
    12   12    7 1    
    13    9    8 1    
    14   10    8 1    
    15   48    8 1    
    16   67    9 1    
    17   11   10 1    
    18   12   10 1    
    19   49   10 1    
    20   68   11 1    
    21   13   12 1    
    22   50   12 1    
    23   14   13 1    
    24   22   13 1    
    25   15   14 2    
    26   51   14 1    
    27   16   15 1    
    28   17   16 ar   
    29   22   16 ar   
    30   18   17 1    
    31   19   17 ar   
    32   52   18 1    
    33   53   18 1    
    34   20   19 ar   
    35   21   20 ar   
    36   54   20 1    
    37   22   21 ar   
    38   24   23 1    
    39   25   24 ar   
    40   26   24 ar   
    41   27   24 1    
    42   28   27 1    
    43   29   28 1    
    44   55   28 1    
    45   56   28 1    
    46   30   29 1    
    47   31   29 1    
    48   57   29 1    
    49   35   30 1    
    50   32   31 1    
    51   33   31 1    
    52   58   31 1    
    53   69   32 1    
    54   34   33 1    
    55   35   33 1    
    56   59   33 1    
    57   70   34 1    
    58   36   35 1    
    59   60   35 1    
    60   37   36 ar   
    61   44   36 ar   
    62   38   37 ar   
    63   61   37 1    
    64   39   38 1    
    65   42   38 ar   
    66   40   39 2    
    67   41   39 am   
    68   62   41 1    
    69   63   41 1    
    70   43   42 ar   
    71   64   42 1    
    72   44   43 ar   
    73   65   43 1    
    74   66   44 1    
@<TRIPOS>SUBSTRUCTURE
     1 NAD0        1 GROUP   
@<TRIPOS>SET

