#    Name: 1qvn_FRI_1_INTS_M
#    Modification time : Mon Mar 24 23:58:19 2014

@<TRIPOS>MOLECULE
1qvn_FRI_1_INTS_M
   95     0     9     0     0
SMALL
NO_CHARGES


@<TRIPOS>ATOM
      1 CA         18.5615   13.4785   82.2415 C.3       3 GLC5        0.0000 
      2 CA         17.6290   12.9410   83.6680 C.3       9 GLL5        0.0000 
      3 CA         19.4940   14.0160   80.8150 C.3       6 GLP5        0.0000 
      4 O          19.4630   12.9675   85.8675 O.2       1 ALC1        0.0000 
      5 O          18.3730   12.2940   84.7380 O.2       7 ALL1        0.0000 
      6 O          20.5530   13.6410   86.9970 O.2       4 ALP1        0.0000 
      7 CA         19.7085    9.4540   89.5150 C.3       3 GLC5        0.0000 
      8 CA         18.2130   10.5250   88.3690 C.3       9 GLL5        0.0000 
      9 CA         21.2040    8.3830   90.6610 C.3       6 GLP5        0.0000 
     10 CA         19.2045    9.0145   90.6160 C.3       3 GLC5        0.0000 
     11 CA         17.9000    9.4380   89.3890 C.3       9 GLL5        0.0000 
     12 CA         20.5090    8.5910   91.8430 C.3       6 GLP5        0.0000 
     13 CA         17.8430   13.5225   88.6195 C.3       3 GLC5        0.0000 
     14 CA         17.3050   11.7310   88.5870 C.3       9 GLL5        0.0000 
     15 CA         18.3810   15.3140   88.6520 C.3       6 GLP5        0.0000 
     16 OD1        23.3785    8.6855   87.1680 O.co2     2 ASC3        0.0000 
     17 OD1        21.3030    9.2610   86.5550 O.co2     8 ASL3        0.0000 
     18 OD1        24.9280    9.3210   87.5990 O.co2     5 ASP3        0.0000 
     19 O          23.4195   10.9140   87.4390 O.2       1 ALC1        0.0000 
     20 O          21.9140   10.3200   87.0900 O.2       7 ALL1        0.0000 
     21 O          24.9250   11.5080   87.7880 O.2       4 ALP1        0.0000 
     22 O          23.4210    9.8205   87.3445 O.2       1 ALC1        0.0000 
     23 O          24.9280    9.3210   87.5990 O.2       4 ALP1        0.0000 
     24 O          23.3785    8.6855   87.1680 O.2       1 ALC1        0.0000 
     25 O          21.8290    8.0500   86.7370 O.2       7 ALL1        0.0000 
     26 CA         16.7760   15.0095   79.2255 C.3       3 GLC5        0.0000 
     27 CA         15.3210   14.5020   80.7890 C.3       9 GLL5        0.0000 
     28 CA         18.2310   15.5170   77.6620 C.3       6 GLP5        0.0000 
     29 CA         14.6895   17.9890   83.5015 C.3       3 GLC5        0.0000 
     30 CA         14.7790   16.1640   82.5050 C.3       9 GLL5        0.0000 
     31 CA         14.6000   19.8140   84.4980 C.3       6 GLP5        0.0000 
     32 CA         10.0655   16.1665   79.4425 C.3       3 GLC5        0.0000 
     33 CA         11.6990   16.9750   79.9200 C.3       9 GLL5        0.0000 
     34 CA          8.4320   15.3580   78.9650 C.3       6 GLP5        0.0000 
     35 CA         12.7190   15.7960   78.4355 C.3       3 GLC5        0.0000 
     36 CA         13.7390   14.6170   76.9510 C.3       6 GLP5        0.0000 
     37 CA         16.6400   16.3605   78.5190 C.3       3 GLC5        0.0000 
     38 CA         15.0490   17.2040   79.3760 C.3       9 GLL5        0.0000 
     39 CA         18.4035   20.1050   80.3195 C.3       3 GLC5        0.0000 
     40 CA         17.8250   18.3980   79.5710 C.3       9 GLL5        0.0000 
     41 CA         18.9820   21.8120   81.0680 C.3       6 GLP5        0.0000 
     42 CA         18.4770   16.8325   80.4435 C.3       3 GLC5        0.0000 
     43 CA         19.1290   15.2670   81.3160 C.3       6 GLP5        0.0000 
     44 CA         18.0280   16.9575   78.6165 C.3       3 GLC5        0.0000 
     45 CA         20.9405   20.8600   78.3830 C.3       3 GLC5        0.0000 
     46 CA         19.6470   20.1280   77.7620 C.3       9 GLL5        0.0000 
     47 CA         22.2340   21.5920   79.0040 C.3       6 GLP5        0.0000 
     48 CA         19.2680   18.4335   76.6710 C.3       3 GLC5        0.0000 
     49 CA         18.8890   16.7390   75.5800 C.3       6 GLP5        0.0000 
     50 CA         20.8990   20.4285   76.4750 C.3       3 GLC5        0.0000 
     51 CA         22.1510   20.7290   75.1880 C.3       6 GLP5        0.0000 
     52 CA         19.5820   21.0325   74.1155 C.3       3 GLC5        0.0000 
     53 CA         17.7740   21.9050   74.2380 C.3       9 GLL5        0.0000 
     54 CA         21.3900   20.1600   73.9930 C.3       6 GLP5        0.0000 
     55 CA         15.5010   22.6585   77.5195 C.3       3 GLC5        0.0000 
     56 CA         16.2190   23.0350   75.8610 C.3       9 GLL5        0.0000 
     57 CA         14.7830   22.2820   79.1780 C.3       6 GLP5        0.0000 
     58 CA         14.0495   28.3390   76.0135 C.3       3 GLC5        0.0000 
     59 CA         14.3800   27.2730   75.1720 C.3       9 GLL5        0.0000 
     60 CA         13.7190   29.4050   76.8550 C.3       6 GLP5        0.0000 
     61 CA         15.7660   26.8410   76.0865 C.3       3 GLC5        0.0000 
     62 CA         17.1520   26.4090   77.0010 C.3       6 GLP5        0.0000 
     63 CA         12.8225   27.5985   74.2210 C.3       3 GLC5        0.0000 
     64 CA         11.2650   27.9240   73.2700 C.3       6 GLP5        0.0000 
     65 CA         17.2100   14.5987   81.3060 C.3       3 GLC5        0.0000 
     66 CA         14.2790   14.8302   78.9668 C.3       3 GLC5        0.0000 
     67 CA         16.5570   16.3435   83.6410 C.3       3 GLC5        0.0000 
     68 CA         18.3920   17.0640   84.2400 C.3       6 GLP5        0.0000 
     69 CA         14.1830   15.7707   78.3468 C.3       3 GLC5        0.0000 
     70 CA         14.2050   16.6450   80.1090 C.3       9 GLL5        0.0000 
     71 CA         15.1400   20.8072   78.1970 C.3       3 GLC5        0.0000 
     72 CA         15.7530   19.0210   77.7860 C.3       9 GLL5        0.0000 
     73 CA         17.3280   17.3060   77.8080 C.3       3 GLC5        0.0000 
     74 CA         15.5828   18.7130   74.8042 C.3       3 GLC5        0.0000 
     75 CA         15.2410   19.6440   76.6460 C.3       9 GLL5        0.0000 
     76 CA         15.5020   17.4120   73.3740 C.3       6 GLP5        0.0000 
     77 CA         15.7683   21.3762   77.5932 C.3       3 GLC5        0.0000 
     78 CA         16.0860   20.3840   75.8230 C.3       9 GLL5        0.0000 
     79 CA         18.2797   18.4932   76.1695 C.3       3 GLC5        0.0000 
     80 CA         17.4210   20.5570   76.1940 C.3       9 GLL5        0.0000 
     81 CA         16.1457   20.9177   78.4505 C.3       3 GLC5        0.0000 
     82 CA         17.9200   19.9380   77.3240 C.3       9 GLL5        0.0000 
     83 CA         18.2452   20.6827   79.3955 C.3       3 GLC5        0.0000 
     84 CA         17.0970   19.1690   78.1220 C.3       9 GLL5        0.0000 
     85 CA         18.0625   24.0055   74.1271 C.3       3 GLC5        0.0000 
     86 CA         19.6070   25.1650   74.3180 C.3       6 GLP5        0.0000 
     87 CA         14.8768   22.9905   71.9105 C.3       3 GLC5        0.0000 
     88 CA         15.8570   23.3470   73.4850 C.3       9 GLL5        0.0000 
     89 CA         14.3960   22.1600   70.1870 C.3       6 GLP5        0.0000 
     90 CA         15.8923   25.3870   75.7218 C.3       3 GLC5        0.0000 
     91 CA         14.8580   24.2950   73.7830 C.3       9 GLL5        0.0000 
     92 CA         14.1717   23.6230   77.1883 C.3       3 GLC5        0.0000 
     93 CA         15.1360   23.8630   76.1490 C.3       9 GLL5        0.0000 
     94 CA         13.5720   23.0970   78.7510 C.3       6 GLP5        0.0000 
     95 CA         16.4147   24.9290   76.5030 C.3       3 GLC5        0.0000 
@<TRIPOS>BOND
@<TRIPOS>SUBSTRUCTURE
     1 ALC1        4 GROUP        1 X    ALC  0     ROOT ALC X 1
     2 ASC3       16 GROUP        1 X    ASC  0     **** ASC X 3
     3 GLC5        1 GROUP        1 X    GLC  0     **** GLC X 6
     4 ALP1        6 GROUP        1 Y    ALP  0     ROOT ALP Y 8
     5 ASP3       18 GROUP        1 Y    ASP  0     **** ASP Y 10
     6 GLP5        3 GROUP        1 Y    GLP  0     **** GLP Y 13
     7 ALL1        5 GROUP        1 Z    ALL  0     ROOT ALL Z 15
     8 ASL3       17 GROUP        1 Z    ASL  0     **** ASL Z 17
     9 GLL5        2 GROUP        1 Z    GLL  0     **** GLL Z 20
@<TRIPOS>SET

