#    Name: 1qvn_FRI_1_ligand
#    Modification time : Mon Mar 24 23:58:19 2014

@<TRIPOS>MOLECULE
1qvn_FRI_1_ligand
   90    93     1     0     0
SMALL
NO_CHARGES


@<TRIPOS>ATOM
      1 O47        15.7940   12.9430   85.1680 O.2       1 FRI201      0.0000 
      2 C30        16.2040   13.2640   84.0610 C.2       1 FRI201      0.0000 
      3 C29        17.6290   12.9410   83.6680 C.3       1 FRI201      0.0000 
      4 N3         18.3730   12.2940   84.7380 N.am      1 FRI201      0.0000 
      5 C27        18.6330   10.9850   84.7640 C.2       1 FRI201      0.0000 
      6 O46        18.4210   10.2300   83.8230 O.2       1 FRI201      0.0000 
      7 C26        19.2170   10.4640   86.0470 C.3       1 FRI201      0.0000 
      8 C41        18.0850    9.9820   86.9490 C.3       1 FRI201      0.0000 
      9 C32        18.2130   10.5250   88.3690 C.3       1 FRI201      0.0000 
     10 C37        17.9000    9.4380   89.3890 C.3       1 FRI201      0.0000 
     11 C36        17.3050   11.7310   88.5870 C.3       1 FRI201      0.0000 
     12 N7         20.1830    9.3960   85.8360 N.pl3     1 FRI201      0.0000 
     13 C24        21.3030    9.2610   86.5550 C.cat     1 FRI201      0.0000 
     14 N5         21.9140   10.3200   87.0900 N.pl3     1 FRI201      0.0000 
     15 N4         21.8290    8.0500   86.7370 N.pl3     1 FRI201      0.0000 
     16 N2         15.4250   13.8870   83.1700 N.am      1 FRI201      0.0000 
     17 C31        15.2610   13.3590   81.8030 C.3       1 FRI201      0.0000 
     18 C39        15.3210   14.5020   80.7890 C.3       1 FRI201      0.0000 
     19 C19        14.3170   15.5850   81.1760 C.3       1 FRI201      0.0000 
     20 C21        14.7790   16.1640   82.5050 C.3       1 FRI201      0.0000 
     21 C43        14.6650   15.0820   83.5790 C.3       1 FRI201      0.0000 
     22 C23        14.2050   16.6450   80.1090 C.2       1 FRI201      0.0000 
     23 N8         13.0990   17.2610   79.6300 N.pl3     1 FRI201      0.0000 
     24 C38        11.6990   16.9750   79.9200 C.3       1 FRI201      0.0000 
     25 N6         13.4500   18.2940   78.7600 N.2       1 FRI201      0.0000 
     26 C13        15.0490   17.2040   79.3760 C.2       1 FRI201      0.0000 
     27 C14        14.8240   18.1970   78.6210 C.2       1 FRI201      0.0000 
     28 C11        15.7530   19.0210   77.7860 C.ar      1 FRI201      0.0000 
     29 C15        15.2410   19.6440   76.6460 C.ar      1 FRI201      0.0000 
     30 C17        16.0860   20.3840   75.8230 C.ar      1 FRI201      0.0000 
     31 C20        17.4210   20.5570   76.1940 C.ar      1 FRI201      0.0000 
     32 C33        17.9200   19.9380   77.3240 C.ar      1 FRI201      0.0000 
     33 C34        17.0970   19.1690   78.1220 C.ar      1 FRI201      0.0000 
     34 CL10       17.8250   18.3980   79.5710 Cl        1 FRI201      0.0000 
     35 CL9        19.6470   20.1280   77.7620 Cl        1 FRI201      0.0000 
     36 O45        18.2560   21.3400   75.4530 O.3       1 FRI201      0.0000 
     37 C40        17.7740   21.9050   74.2380 C.3       1 FRI201      0.0000 
     38 C22        16.5840   22.7850   74.5370 C.ar      1 FRI201      0.0000 
     39 C28        15.8570   23.3470   73.4850 C.ar      1 FRI201      0.0000 
     40 C25        14.8580   24.2950   73.7830 C.ar      1 FRI201      0.0000 
     41 C35        14.4070   24.4350   75.1020 C.ar      1 FRI201      0.0000 
     42 C18        15.1360   23.8630   76.1490 C.ar      1 FRI201      0.0000 
     43 C16        16.2190   23.0350   75.8610 C.ar      1 FRI201      0.0000 
     44 N1         13.2650   25.1330   75.3380 N.am      1 FRI201      0.0000 
     45 C12        13.2580   26.4200   75.6980 C.2       1 FRI201      0.0000 
     46 O44        12.3790   26.8770   76.4120 O.2       1 FRI201      0.0000 
     47 C42        14.3800   27.2730   75.1720 C.3       1 FRI201      0.0000 
     48 H          18.1258   13.8817   83.3634 H         1 FRI201      0.0000 
     49 H          17.6025   12.2966   82.7688 H         1 FRI201      0.0000 
     50 H          18.7013   12.9324   85.5070 H         1 FRI201      0.0000 
     51 H          19.6971   11.3028   86.5660 H         1 FRI201      0.0000 
     52 H          18.0923    8.8880   86.9810 H         1 FRI201      0.0000 
     53 H          17.1277   10.3033   86.5267 H         1 FRI201      0.0000 
     54 H          19.2442   10.8437   88.5212 H         1 FRI201      0.0000 
     55 H          19.9442    8.7192   85.0664 H         1 FRI201      0.0000 
     56 H          21.5113   11.2116   86.8828 H         1 FRI201      0.0000 
     57 H          22.7196   10.1268   87.6500 H         1 FRI201      0.0000 
     58 H          22.6446    8.0067   87.3139 H         1 FRI201      0.0000 
     59 H          21.3607    7.2937   86.2802 H         1 FRI201      0.0000 
     60 H          14.2989   12.8544   81.6982 H         1 FRI201      0.0000 
     61 H          16.0538   12.6467   81.5679 H         1 FRI201      0.0000 
     62 H          15.0781   14.1208   79.8040 H         1 FRI201      0.0000 
     63 H          16.3198   14.9226   80.7813 H         1 FRI201      0.0000 
     64 H          13.3579   15.1120   81.3284 H         1 FRI201      0.0000 
     65 H          14.1517   17.0021   82.7735 H         1 FRI201      0.0000 
     66 H          15.8090   16.4809   82.4244 H         1 FRI201      0.0000 
     67 H          15.0534   15.4832   84.5162 H         1 FRI201      0.0000 
     68 H          13.6100   14.8396   83.7146 H         1 FRI201      0.0000 
     69 H          16.0813   16.8038   79.3815 H         1 FRI201      0.0000 
     70 H          14.2451   19.5557   76.4170 H         1 FRI201      0.0000 
     71 H          15.7347   20.7967   74.9566 H         1 FRI201      0.0000 
     72 H          17.4573   21.1308   73.5295 H         1 FRI201      0.0000 
     73 H          18.5379   22.5184   73.7461 H         1 FRI201      0.0000 
     74 H          16.0405   23.0814   72.5226 H         1 FRI201      0.0000 
     75 H          14.4672   24.8750   73.0392 H         1 FRI201      0.0000 
     76 H          14.8741   24.0526   77.1202 H         1 FRI201      0.0000 
     77 H          16.7538   22.6046   76.6283 H         1 FRI201      0.0000 
     78 H          12.3383   24.6226   75.2285 H         1 FRI201      0.0000 
     79 H          18.5240    8.6609   89.3069 H         1 FRI201      0.0000 
     80 H          17.9749    9.7763   90.3271 H         1 FRI201      0.0000 
     81 H          16.9721    9.0817   89.2791 H         1 FRI201      0.0000 
     82 H          17.3813   12.0900   89.5172 H         1 FRI201      0.0000 
     83 H          17.5278   12.4810   87.9642 H         1 FRI201      0.0000 
     84 H          16.3427   11.5030   88.4388 H         1 FRI201      0.0000 
     85 H          11.4505   16.0403   79.6659 H         1 FRI201      0.0000 
     86 H          11.4925   17.0790   80.8929 H         1 FRI201      0.0000 
     87 H          11.0842   17.5872   79.4228 H         1 FRI201      0.0000 
     88 H          15.2735   26.9354   75.4682 H         1 FRI201      0.0000 
     89 H          14.3920   27.2958   74.1723 H         1 FRI201      0.0000 
     90 H          14.3055   28.2195   75.4859 H         1 FRI201      0.0000 
@<TRIPOS>BOND
     1    2    1 2    
     2    3    2 1    
     3   16    2 am   
     4    4    3 1    
     5   48    3 1    
     6   49    3 1    
     7    5    4 am   
     8   50    4 1    
     9    6    5 2    
    10    7    5 1    
    11    8    7 1    
    12   12    7 1    
    13   51    7 1    
    14    9    8 1    
    15   52    8 1    
    16   53    8 1    
    17   10    9 1    
    18   11    9 1    
    19   54    9 1    
    20   79   10 1    
    21   80   10 1    
    22   81   10 1    
    23   82   11 1    
    24   83   11 1    
    25   84   11 1    
    26   13   12 ar   
    27   55   12 1    
    28   14   13 ar   
    29   15   13 ar   
    30   56   14 1    
    31   57   14 1    
    32   58   15 1    
    33   59   15 1    
    34   17   16 1    
    35   21   16 1    
    36   18   17 1    
    37   60   17 1    
    38   61   17 1    
    39   19   18 1    
    40   62   18 1    
    41   63   18 1    
    42   20   19 1    
    43   22   19 1    
    44   64   19 1    
    45   21   20 1    
    46   65   20 1    
    47   66   20 1    
    48   67   21 1    
    49   68   21 1    
    50   23   22 1    
    51   26   22 2    
    52   24   23 1    
    53   25   23 1    
    54   85   24 1    
    55   86   24 1    
    56   87   24 1    
    57   27   25 2    
    58   27   26 1    
    59   69   26 1    
    60   28   27 1    
    61   29   28 ar   
    62   33   28 ar   
    63   30   29 ar   
    64   70   29 1    
    65   31   30 ar   
    66   71   30 1    
    67   32   31 ar   
    68   36   31 1    
    69   33   32 ar   
    70   35   32 1    
    71   34   33 1    
    72   37   36 1    
    73   38   37 1    
    74   72   37 1    
    75   73   37 1    
    76   39   38 ar   
    77   43   38 ar   
    78   40   39 ar   
    79   74   39 1    
    80   41   40 ar   
    81   75   40 1    
    82   42   41 ar   
    83   44   41 1    
    84   43   42 ar   
    85   76   42 1    
    86   77   43 1    
    87   45   44 am   
    88   78   44 1    
    89   46   45 2    
    90   47   45 1    
    91   88   47 1    
    92   89   47 1    
    93   90   47 1    
@<TRIPOS>SUBSTRUCTURE
     1 FRI201      1 GROUP   
@<TRIPOS>SET

