#    Name: 2e37_NAD_3_INTS_M
#    Modification time : Tue Mar 25 10:34:13 2014

@<TRIPOS>MOLECULE
2e37_NAD_3_INTS_M
   79     0     9     0     0
SMALL
NO_CHARGES


@<TRIPOS>ATOM
      1 N         137.5120   65.1795  125.2760 N.am      2 SEC2        0.0000 
      2 N         139.0320   65.4280  125.7160 N.am      8 SEL2        0.0000 
      3 N         135.9920   64.9310  124.8360 N.am      5 SEP2        0.0000 
      4 CA        139.7645   65.6425  119.5270 C.3       3 GLC5        0.0000 
      5 CA        140.8350   65.6350  121.2540 C.3       9 GLL5        0.0000 
      6 CA        138.6940   65.6500  117.8000 C.3       6 GLP5        0.0000 
      7 CA        140.8535   67.2730  119.7560 C.3       3 GLC5        0.0000 
      8 CA        140.8720   68.9110  118.2580 C.3       6 GLP5        0.0000 
      9 N         142.0535   67.8040  120.0185 N.am      2 SEC2        0.0000 
     10 N         141.5040   66.2580  120.1440 N.am      8 SEL2        0.0000 
     11 N         142.6030   69.3500  119.8930 N.am      5 SEP2        0.0000 
     12 CA        140.8825   62.2035  121.9845 C.3       3 GLC5        0.0000 
     13 CA        141.4970   64.2700  121.6440 C.3       9 GLL5        0.0000 
     14 CA        140.2680   60.1370  122.3250 C.3       6 GLP5        0.0000 
     15 O         141.5080   62.4025  119.9825 O.2       1 ALC1        0.0000 
     16 O         140.7050   63.1570  121.2620 O.2       7 ALL1        0.0000 
     17 O         142.3110   61.6480  118.7030 O.2       4 ALP1        0.0000 
     18 O         140.5725   62.9590  120.1290 O.2       1 ALC1        0.0000 
     19 O         140.4400   62.7610  118.9960 O.2       4 ALP1        0.0000 
     20 O         142.9735   62.4410  119.7300 O.2       1 ALC1        0.0000 
     21 O         143.6360   63.2340  120.7570 O.2       7 ALL1        0.0000 
     22 CA        140.5770   65.4255  118.8095 C.3       3 GLC5        0.0000 
     23 CA        142.4600   65.2010  119.8190 C.3       9 GLL5        0.0000 
     24 CA        141.6660   67.0560  119.0385 C.3       3 GLC5        0.0000 
     25 CA        144.3975   67.6325  114.5105 C.3       3 GLC5        0.0000 
     26 CA        145.2180   66.1410  115.8550 C.3       9 GLL5        0.0000 
     27 CA        143.5770   69.1240  113.1660 C.3       6 GLP5        0.0000 
     28 CA        141.6480   65.7490  114.4265 C.3       3 GLC5        0.0000 
     29 CA        143.1140   64.8430  115.3980 C.3       9 GLL5        0.0000 
     30 CA        140.1820   66.6550  113.4550 C.3       6 GLP5        0.0000 
     31 CA        142.0885   63.2380  115.6545 C.3       3 GLC5        0.0000 
     32 CA        141.0630   61.6330  115.9110 C.3       6 GLP5        0.0000 
     33 CA        144.4335   63.5905  115.9700 C.3       3 GLC5        0.0000 
     34 CA        145.7530   62.3380  116.5420 C.3       6 GLP5        0.0000 
     35 CA        142.3805   66.7810  116.1860 C.3       3 GLC5        0.0000 
     36 CA        141.6470   68.7190  116.9740 C.3       6 GLP5        0.0000 
     37 N         143.1170   63.3505  116.4685 N.am      2 SEC2        0.0000 
     38 N         142.7990   64.9050  116.7760 N.am      8 SEL2        0.0000 
     39 N         143.4350   61.7960  116.1610 N.am      5 SEP2        0.0000 
     40 N         135.5540   67.4125  124.0275 N.am      2 SEC2        0.0000 
     41 N         136.8250   67.7470  123.9290 N.am      8 SEL2        0.0000 
     42 N         134.2830   67.0780  124.1260 N.am      5 SEP2        0.0000 
     43 CA        136.5345   70.1085  123.8345 C.3       3 GLC5        0.0000 
     44 CA        138.6350   70.1450  123.3270 C.3       9 GLL5        0.0000 
     45 CA        134.4340   70.0720  124.3420 C.3       6 GLP5        0.0000 
     46 CA        140.1715   72.6930  121.9680 C.3       3 GLC5        0.0000 
     47 CA        139.6460   71.2470  123.3730 C.3       9 GLL5        0.0000 
     48 CA        140.6970   74.1390  120.5630 C.3       6 GLP5        0.0000 
     49 CA        142.1175   70.5815  122.5040 C.3       3 GLC5        0.0000 
     50 CA        140.9010   70.9520  124.2150 C.3       9 GLL5        0.0000 
     51 CA        143.3340   70.2110  120.7930 C.3       6 GLP5        0.0000 
     52 O         143.5970   70.7195  124.2270 O.2       1 ALC1        0.0000 
     53 O         142.0800   70.4770  123.4410 O.2       7 ALL1        0.0000 
     54 O         145.1140   70.9620  125.0130 O.2       4 ALP1        0.0000 
     55 N         143.5830   73.7795  123.1810 N.am      2 SEC2        0.0000 
     56 N         142.4640   72.6740  123.7120 N.am      8 SEL2        0.0000 
     57 N         144.7020   74.8850  122.6500 N.am      5 SEP2        0.0000 
     58 CA        140.4330   73.5920  122.6595 C.3       3 GLC5        0.0000 
     59 CA        140.1690   73.0450  124.7560 C.3       9 GLL5        0.0000 
     60 CA        139.1760   74.7805  124.8210 C.3       3 GLC5        0.0000 
     61 CA        138.1830   76.5160  124.8860 C.3       6 GLP5        0.0000 
     62 CA        138.2610   74.5820  125.7050 C.3       3 GLC5        0.0000 
     63 CA        138.3390   72.6480  126.5240 C.3       9 GLL5        0.0000 
     64 N         134.9805   71.9635  129.9995 N.am      2 SEC2        0.0000 
     65 N         136.1690   72.4830  129.5490 N.am      8 SEL2        0.0000 
     66 N         133.7920   71.4440  130.4500 N.am      5 SEP2        0.0000 
     67 O         134.4640   71.2800  127.6635 O.2       1 ALC1        0.0000 
     68 O         135.7000   71.7100  127.4470 O.2       7 ALL1        0.0000 
     69 O         133.2280   70.8500  127.8800 O.2       4 ALP1        0.0000 
     70 CA        139.3605   75.1470  126.0105 C.3       3 GLC5        0.0000 
     71 CA        140.5380   73.7780  127.1350 C.3       9 GLL5        0.0000 
     72 CA        139.3234   64.7012  122.4147 C.3       3 GLC5        0.0000 
     73 CA        140.8460   66.6070  122.5720 C.3       9 GLL5        0.0000 
     74 CA        137.4780   64.2070  123.0510 C.3       6 GLP5        0.0000 
     75 CA        142.9660   67.3045  117.2200 C.3       3 GLC5        0.0000 
     76 CA        144.8950   66.2060  117.2570 C.3       9 GLL5        0.0000 
     77 CA        145.1242   68.1208  116.5555 C.3       3 GLC5        0.0000 
     78 CA        145.1920   70.0680  116.5550 C.3       6 GLP5        0.0000 
     79 CA        145.0594   64.1059  116.8287 C.3       3 GLC5        0.0000 
@<TRIPOS>BOND
@<TRIPOS>SUBSTRUCTURE
     1 ALC1       15 GROUP        1 X    ALC  0     ROOT ALC X 1
     2 SEC2        1 GROUP        1 X    SEC  0     **** SEC X 2
     3 GLC5        4 GROUP        1 X    GLC  0     **** GLC X 6
     4 ALP1       17 GROUP        1 Y    ALP  0     ROOT ALP Y 8
     5 SEP2        3 GROUP        1 Y    SEP  0     **** SEP Y 9
     6 GLP5        6 GROUP        1 Y    GLP  0     **** GLP Y 13
     7 ALL1       16 GROUP        1 Z    ALL  0     ROOT ALL Z 15
     8 SEL2        2 GROUP        1 Z    SEL  0     **** SEL Z 16
     9 GLL5        5 GROUP        1 Z    GLL  0     **** GLL Z 20
@<TRIPOS>SET

