#    Name: 2e37_NAD_3_ligand
#    Modification time : Tue Mar 25 10:34:13 2014

@<TRIPOS>MOLECULE
2e37_NAD_3_ligand
   70    74     1     0     0
SMALL
NO_CHARGES


@<TRIPOS>ATOM
      1 PA        139.8770   66.4130  124.9820 P.3       1 NAD1403     0.0000 
      2 O1A       139.0320   65.4280  125.7160 O.co2     1 NAD1403     0.0000 
      3 O2A       141.2400   66.6810  125.6150 O.co2     1 NAD1403     0.0000 
      4 O5B       140.0730   65.8760  123.4990 O.3       1 NAD1403     0.0000 
      5 C5B       140.8460   66.6070  122.5720 C.3       1 NAD1403     0.0000 
      6 C4B       140.8350   65.6350  121.2540 C.3       1 NAD1403     0.0000 
      7 O4B       141.5040   66.2580  120.1440 O.3       1 NAD1403     0.0000 
      8 C3B       141.4970   64.2700  121.6440 C.3       1 NAD1403     0.0000 
      9 O3B       140.7050   63.1570  121.2620 O.3       1 NAD1403     0.0000 
     10 C2B       142.8830   64.4050  120.9940 C.3       1 NAD1403     0.0000 
     11 O2B       143.6360   63.2340  120.7570 O.3       1 NAD1403     0.0000 
     12 C1B       142.4600   65.2010  119.8190 C.3       1 NAD1403     0.0000 
     13 N9A       143.5770   65.7770  119.0160 N.pl3     1 NAD1403     0.0000 
     14 C8A       144.7010   66.4830  119.4150 C.2       1 NAD1403     0.0000 
     15 N7A       145.4810   66.7430  118.3450 N.2       1 NAD1403     0.0000 
     16 C5A       144.8950   66.2060  117.2570 C.ar      1 NAD1403     0.0000 
     17 C6A       145.2180   66.1410  115.8550 C.ar      1 NAD1403     0.0000 
     18 N6A       146.3290   66.6970  115.3870 N.pl3     1 NAD1403     0.0000 
     19 N1A       144.3250   65.4610  114.9430 N.ar      1 NAD1403     0.0000 
     20 C2A       143.1140   64.8430  115.3980 C.ar      1 NAD1403     0.0000 
     21 N3A       142.7990   64.9050  116.7760 N.ar      1 NAD1403     0.0000 
     22 C4A       143.6750   65.5740  117.6750 C.ar      1 NAD1403     0.0000 
     23 O3        139.1840   67.8600  124.8770 O.3       1 NAD1403     0.0000 
     24 PN        137.6740   68.4180  124.9250 P.3       1 NAD1403     0.0000 
     25 O1N       136.8250   67.7470  123.9290 O.co2     1 NAD1403     0.0000 
     26 O2N       137.2750   68.2610  126.3420 O.co2     1 NAD1403     0.0000 
     27 O5D       138.1300   69.8790  124.6100 O.3       1 NAD1403     0.0000 
     28 C5D       138.6350   70.1450  123.3270 C.3       1 NAD1403     0.0000 
     29 C4D       139.6460   71.2470  123.3730 C.3       1 NAD1403     0.0000 
     30 O4D       139.1340   72.3970  123.9780 O.3       1 NAD1403     0.0000 
     31 C3D       140.9010   70.9520  124.2150 C.3       1 NAD1403     0.0000 
     32 O3D       142.0800   70.4770  123.4410 O.3       1 NAD1403     0.0000 
     33 C2D       141.4640   72.2330  124.6190 C.3       1 NAD1403     0.0000 
     34 O2D       142.4640   72.6740  123.7120 O.3       1 NAD1403     0.0000 
     35 C1D       140.1690   73.0450  124.7560 C.3       1 NAD1403     0.0000 
     36 N1N       139.6310   73.2020  126.1610 N.pl3     1 NAD1403     0.0000 
     37 C2N       138.3390   72.6480  126.5240 C.ar      1 NAD1403     0.0000 
     38 C3N       137.8760   72.8230  127.8750 C.ar      1 NAD1403     0.0000 
     39 C7N       136.5290   72.3250  128.2640 C.2       1 NAD1403     0.0000 
     40 O7N       136.1690   72.4830  129.5490 O.2       1 NAD1403     0.0000 
     41 N7N       135.7000   71.7100  127.4470 N.am      1 NAD1403     0.0000 
     42 C4N       138.7860   73.4800  128.8510 C.ar      1 NAD1403     0.0000 
     43 C5N       140.1310   73.9100  128.5000 C.ar      1 NAD1403     0.0000 
     44 C6N       140.5380   73.7780  127.1350 C.ar      1 NAD1403     0.0000 
     45 H         141.8688   66.7082  122.8351 H         1 NAD1403     0.0000 
     46 H         140.4041   67.5166  122.2512 H         1 NAD1403     0.0000 
     47 H         139.7898   65.4431  121.0519 H         1 NAD1403     0.0000 
     48 H         141.6543   64.3428  122.7242 H         1 NAD1403     0.0000 
     49 H         143.4121   65.1348  121.6568 H         1 NAD1403     0.0000 
     50 H         141.9151   64.4900  119.1170 H         1 NAD1403     0.0000 
     51 H         144.8809   66.7413  120.3300 H         1 NAD1403     0.0000 
     52 H         146.9329   67.1131  116.0668 H         1 NAD1403     0.0000 
     53 H         146.4616   66.6494  114.3970 H         1 NAD1403     0.0000 
     54 H         142.5064   64.3770  114.7442 H         1 NAD1403     0.0000 
     55 H         137.8336   70.4449  122.6256 H         1 NAD1403     0.0000 
     56 H         139.1198   69.2540  122.8849 H         1 NAD1403     0.0000 
     57 H         139.9951   71.4797  122.3697 H         1 NAD1403     0.0000 
     58 H         140.7131   70.3622  125.0291 H         1 NAD1403     0.0000 
     59 H         141.8415   72.0962  125.6388 H         1 NAD1403     0.0000 
     60 H         140.3435   74.0390  124.3392 H         1 NAD1403     0.0000 
     61 H         137.7902   72.1590  125.8489 H         1 NAD1403     0.0000 
     62 H         136.0099   71.6059  126.5019 H         1 NAD1403     0.0000 
     63 H         134.8359   71.4030  127.8459 H         1 NAD1403     0.0000 
     64 H         138.4414   73.6289  129.7998 H         1 NAD1403     0.0000 
     65 H         140.7386   74.2819  129.1944 H         1 NAD1403     0.0000 
     66 H         141.4562   74.0837  126.8406 H         1 NAD1403     0.0000 
     67 H         141.0912   62.8513  120.3917 H         1 NAD1403     0.0000 
     68 H         143.1424   62.7510  120.0337 H         1 NAD1403     0.0000 
     69 H         142.7358   70.1702  124.1308 H         1 NAD1403     0.0000 
     70 H         142.7786   71.8445  123.2505 H         1 NAD1403     0.0000 
@<TRIPOS>BOND
     1    2    1 ar   
     2    3    1 ar   
     3    4    1 1    
     4   23    1 1    
     5    5    4 1    
     6    6    5 1    
     7   45    5 1    
     8   46    5 1    
     9    7    6 1    
    10    8    6 1    
    11   47    6 1    
    12   12    7 1    
    13    9    8 1    
    14   10    8 1    
    15   48    8 1    
    16   67    9 1    
    17   11   10 1    
    18   12   10 1    
    19   49   10 1    
    20   68   11 1    
    21   13   12 1    
    22   50   12 1    
    23   14   13 1    
    24   22   13 1    
    25   15   14 2    
    26   51   14 1    
    27   16   15 1    
    28   17   16 ar   
    29   22   16 ar   
    30   18   17 1    
    31   19   17 ar   
    32   52   18 1    
    33   53   18 1    
    34   20   19 ar   
    35   21   20 ar   
    36   54   20 1    
    37   22   21 ar   
    38   24   23 1    
    39   25   24 ar   
    40   26   24 ar   
    41   27   24 1    
    42   28   27 1    
    43   29   28 1    
    44   55   28 1    
    45   56   28 1    
    46   30   29 1    
    47   31   29 1    
    48   57   29 1    
    49   35   30 1    
    50   32   31 1    
    51   33   31 1    
    52   58   31 1    
    53   69   32 1    
    54   34   33 1    
    55   35   33 1    
    56   59   33 1    
    57   70   34 1    
    58   36   35 1    
    59   60   35 1    
    60   37   36 ar   
    61   44   36 ar   
    62   38   37 ar   
    63   61   37 1    
    64   39   38 1    
    65   42   38 ar   
    66   40   39 2    
    67   41   39 am   
    68   62   41 1    
    69   63   41 1    
    70   43   42 ar   
    71   64   42 1    
    72   44   43 ar   
    73   65   43 1    
    74   66   44 1    
@<TRIPOS>SUBSTRUCTURE
     1 NAD1403     1 GROUP   
@<TRIPOS>SET

