#    Name: 1J4I_1_CAVITY_N1_6.mol2
#    Modification time : Tue Mar 11 09:53:30 2014

@<TRIPOS>MOLECULE
1J4I_1_CAVITY_N1_6.mol2
   69     0     6     0     0
SMALL
NO_CHARGES


@<TRIPOS>ATOM
      1 CA         28.0215  -27.9817  -37.4428 C.3       5 GLY6        0.0000 
      2 CA         28.6934  -29.1662  -36.8138 C.3       5 GLY6        0.0000 
      3 NZ         29.5841  -27.8542  -38.8718 N.2       3 LYS4        0.0000 
      4 DU         30.2560  -29.0387  -38.2428 H         6 CUB7        0.0000 
      5 CA         27.5935  -27.3811  -39.4318 C.3       5 GLY6        0.0000 
      6 CA         28.2653  -28.5656  -38.8028 C.3       5 GLY6        0.0000 
      7 CA         28.9372  -29.7501  -38.1738 C.3       5 GLY6        0.0000 
      8 DU         29.6090  -30.9346  -37.5448 H         6 CUB7        0.0000 
      9 CA         27.6184  -30.4615  -38.1048 C.3       5 GLY6        0.0000 
     10 O          28.2902  -31.6459  -37.4758 O.2       2 ALA2        0.0000 
     11 NZ         29.8279  -28.4381  -40.2318 N.2       3 LYS4        0.0000 
     12 NZ         30.4998  -29.6226  -39.6028 N.2       3 LYS4        0.0000 
     13 DU         31.1716  -30.8071  -38.9738 H         6 CUB7        0.0000 
     14 DU         31.8434  -31.9916  -38.3448 H         6 CUB7        0.0000 
     15 CA         28.5092  -29.1495  -40.1628 C.3       5 GLY6        0.0000 
     16 DU         29.1810  -30.3340  -39.5338 H         6 CUB7        0.0000 
     17 DU         29.8528  -31.5185  -38.9048 H         6 CUB7        0.0000 
     18 OG         30.5246  -32.7030  -38.2758 O.2       1 SER1        0.0000 
     19 OG         31.1965  -33.8875  -37.6468 O.2       1 SER1        0.0000 
     20 CA         27.1904  -29.8609  -40.0938 C.3       5 GLY6        0.0000 
     21 CA         27.8622  -31.0454  -39.4648 C.3       5 GLY6        0.0000 
     22 OG         28.5340  -32.2299  -38.8358 O.2       1 SER1        0.0000 
     23 OG         32.7342  -30.6797  -40.4028 O.2       1 SER1        0.0000 
     24 NZ         30.7436  -30.2065  -40.9628 N.2       3 LYS4        0.0000 
     25 OG         31.4154  -31.3910  -40.3338 O.2       1 SER1        0.0000 
     26 DU         32.0872  -32.5755  -39.7048 H         6 CUB7        0.0000 
     27 DU         32.7591  -33.7600  -39.0758 H         6 CUB7        0.0000 
     28 CA         28.7530  -29.7334  -41.5228 C.3       5 GLY6        0.0000 
     29 CZ         29.4248  -30.9179  -40.8938 C.ar      4 PHE5        0.0000 
     30 OG         30.0966  -32.1024  -40.2648 O.2       1 SER1        0.0000 
     31 OG         30.7684  -33.2869  -39.6358 O.2       1 SER1        0.0000 
     32 OG         31.4403  -34.4714  -39.0068 O.2       1 SER1        0.0000 
     33 N          32.1121  -35.6559  -38.3778 N.2       2 ALA2        0.0000 
     34 CZ         28.1060  -31.6293  -40.8248 C.ar      4 PHE5        0.0000 
     35 OG         28.7778  -32.8138  -40.1958 O.2       1 SER1        0.0000 
     36 OG         30.7933  -36.3672  -38.3088 O.2       1 SER1        0.0000 
     37 N          31.4651  -37.5517  -37.6798 N.2       2 ALA2        0.0000 
     38 CA         30.1463  -38.2631  -37.6108 C.3       5 GLY6        0.0000 
     39 CZ         33.6498  -32.4481  -41.1338 C.ar      4 PHE5        0.0000 
     40 OG         31.6592  -31.9749  -41.6938 O.2       1 SER1        0.0000 
     41 DU         32.3310  -33.1594  -41.0648 H         6 CUB7        0.0000 
     42 CZ         33.0029  -34.3439  -40.4358 C.ar      4 PHE5        0.0000 
     43 N          33.6747  -35.5284  -39.8068 N.2       2 ALA2        0.0000 
     44 CZ         28.9968  -30.3173  -42.8828 C.ar      4 PHE5        0.0000 
     45 CZ         29.6686  -31.5018  -42.2538 C.ar      4 PHE5        0.0000 
     46 DU         30.3404  -32.6863  -41.6248 H         6 CUB7        0.0000 
     47 OG         31.0123  -33.8708  -40.9958 O.2       1 SER1        0.0000 
     48 OG         31.6841  -35.0553  -40.3668 O.2       1 SER1        0.0000 
     49 CA         32.3559  -36.2398  -39.7378 C.3       5 GLY6        0.0000 
     50 CZ         28.3498  -32.2132  -42.1848 C.ar      4 PHE5        0.0000 
     51 OG         29.0216  -33.3977  -41.5558 O.2       1 SER1        0.0000 
     52 O          31.0371  -36.9511  -39.6688 O.2       2 ALA2        0.0000 
     53 CZ         33.8936  -33.0320  -42.4938 C.ar      4 PHE5        0.0000 
     54 CZ         31.9030  -32.5589  -43.0538 C.ar      4 PHE5        0.0000 
     55 DU         32.5749  -33.7433  -42.4248 H         6 CUB7        0.0000 
     56 CA         33.2467  -34.9278  -41.7958 C.3       5 GLY6        0.0000 
     57 CZ         29.9124  -32.0857  -43.6138 C.ar      4 PHE5        0.0000 
     58 CZ         30.5842  -33.2702  -42.9848 C.ar      4 PHE5        0.0000 
     59 DU         31.2561  -34.4547  -42.3558 H         6 CUB7        0.0000 
     60 CA         31.9279  -35.6392  -41.7268 C.3       5 GLY6        0.0000 
     61 CZ         29.2655  -33.9816  -42.9158 C.ar      4 PHE5        0.0000 
     62 OG         29.9373  -35.1661  -42.2868 O.2       1 SER1        0.0000 
     63 CA         30.6091  -36.3506  -41.6578 C.3       5 GLY6        0.0000 
     64 CZ         32.1468  -33.1428  -44.4138 C.ar      4 PHE5        0.0000 
     65 CZ         32.8187  -34.3273  -43.7848 C.ar      4 PHE5        0.0000 
     66 CZ         30.8281  -33.8541  -44.3448 C.ar      4 PHE5        0.0000 
     67 CZ         31.4999  -35.0386  -43.7158 C.ar      4 PHE5        0.0000 
     68 CZ         32.1717  -36.2231  -43.0868 C.ar      4 PHE5        0.0000 
     69 O          30.1811  -35.7500  -43.6468 O.2       2 ALA2        0.0000 
@<TRIPOS>BOND
@<TRIPOS>SUBSTRUCTURE
     1 SER1       18 GROUP   
     2 ALA2       10 GROUP   
     3 LYS4        3 GROUP   
     4 PHE5       29 GROUP   
     5 GLY6        1 GROUP   
     6 CUB7        4 GROUP   
@<TRIPOS>SET

