#    Name: 1j4i_TST_1_INTS_M
#    Modification time : Tue Mar 25 08:37:07 2014

@<TRIPOS>MOLECULE
1j4i_TST_1_INTS_M
   49     0     6     0     0
SMALL
NO_CHARGES


@<TRIPOS>ATOM
      1 CA         34.0640  -36.3100  -42.2665 C.3       2 GLC5        0.0000 
      2 CA         32.9940  -34.9600  -42.9870 C.3       6 GLL5        0.0000 
      3 CA         35.1340  -37.6600  -41.5460 C.3       4 GLP5        0.0000 
      4 CA         33.7880  -35.3805  -44.5475 C.3       2 GLC5        0.0000 
      5 CA         34.5820  -35.8010  -46.1080 C.3       4 GLP5        0.0000 
      6 CA         33.2235  -33.9805  -44.8370 C.3       2 GLC5        0.0000 
      7 CA         32.7260  -33.1570  -43.1220 C.3       6 GLL5        0.0000 
      8 CA         33.7210  -34.8040  -46.5520 C.3       4 GLP5        0.0000 
      9 CA         34.3030  -33.3945  -41.4370 C.3       2 GLC5        0.0000 
     10 CA         32.1540  -32.8250  -41.6250 C.3       6 GLL5        0.0000 
     11 CA         36.4520  -33.9640  -41.2490 C.3       4 GLP5        0.0000 
     12 CA         32.7145  -37.0385  -42.3405 C.3       2 GLC5        0.0000 
     13 CA         31.4560  -35.3880  -43.1270 C.3       6 GLL5        0.0000 
     14 CA         33.9730  -38.6890  -41.5540 C.3       4 GLP5        0.0000 
     15 CA         31.6580  -35.8195  -44.6810 C.3       2 GLC5        0.0000 
     16 CA         31.8600  -36.2510  -46.2350 C.3       4 GLP5        0.0000 
     17 N          31.3610  -38.1075  -40.4530 N.am      1 SEC2        0.0000 
     18 N          31.4760  -36.7300  -40.4040 N.am      5 SEL2        0.0000 
     19 N          31.2460  -39.4850  -40.5020 N.am      3 SEP2        0.0000 
     20 CA         32.9500  -37.0735  -39.1860 C.3       2 GLC5        0.0000 
     21 CA         32.3510  -35.2000  -38.2540 C.3       6 GLL5        0.0000 
     22 CA         33.5490  -38.9470  -40.1180 C.3       4 GLP5        0.0000 
     23 N          29.3540  -35.8140  -38.3175 N.am      1 SEC2        0.0000 
     24 N          30.2000  -36.3360  -37.4340 N.am      5 SEL2        0.0000 
     25 N          28.5080  -35.2920  -39.2010 N.am      3 SEP2        0.0000 
     26 CA         29.3390  -28.7680  -41.7305 C.3       2 GLC5        0.0000 
     27 CA         29.6890  -30.1850  -40.2990 C.3       6 GLL5        0.0000 
     28 CA         28.9890  -27.3510  -43.1620 C.3       4 GLP5        0.0000 
     29 CA         27.0935  -31.6585  -36.5595 C.3       2 GLC5        0.0000 
     30 CA         28.4660  -31.4560  -37.9700 C.3       6 GLL5        0.0000 
     31 CA         25.7210  -31.8610  -35.1490 C.3       4 GLP5        0.0000 
     32 CA         26.6590  -32.3295  -39.8635 C.3       2 GLC5        0.0000 
     33 CA         28.5830  -32.2000  -39.2250 C.3       6 GLL5        0.0000 
     34 CA         24.7350  -32.4590  -40.5020 C.3       4 GLP5        0.0000 
     35 CA         27.0225  -29.5335  -37.1420 C.3       2 GLC5        0.0000 
     36 CA         28.8260  -29.3790  -36.5430 C.3       6 GLL5        0.0000 
     37 CA         25.2190  -29.6880  -37.7410 C.3       4 GLP5        0.0000 
     38 CA         34.7335  -34.2382  -42.8167 C.3       2 GLC5        0.0000 
     39 CA         36.6070  -34.4180  -42.5790 C.3       4 GLP5        0.0000 
     40 CA         32.7125  -31.5365  -43.4498 C.3       2 GLC5        0.0000 
     41 CA         32.9850  -30.0820  -44.5260 C.3       4 GLP5        0.0000 
     42 CA         30.0547  -37.0595  -42.4000 C.3       2 GLC5        0.0000 
     43 CA         29.0630  -38.9680  -42.3730 C.3       4 GLP5        0.0000 
     44 CA         29.4642  -34.8085  -43.7875 C.3       2 GLC5        0.0000 
     45 CA         27.8820  -34.4660  -45.1480 C.3       4 GLP5        0.0000 
     46 CA         27.4168  -30.2025  -35.8903 C.3       2 GLC5        0.0000 
     47 CA         28.9590  -30.1070  -37.8660 C.3       6 GLL5        0.0000 
     48 CA         25.9410  -30.6620  -34.5760 C.3       4 GLP5        0.0000 
     49 CA         26.9334  -30.5894  -38.1562 C.3       2 GLC5        0.0000 
@<TRIPOS>BOND
@<TRIPOS>SUBSTRUCTURE
     1 SEC2       17 GROUP        1 X    SEC  0     ROOT SEC X 2
     2 GLC5        1 GROUP        1 X    GLC  0     **** GLC X 6
     3 SEP2       19 GROUP        1 Y    SEP  0     ROOT SEP Y 9
     4 GLP5        3 GROUP        1 Y    GLP  0     **** GLP Y 13
     5 SEL2       18 GROUP        1 Z    SEL  0     ROOT SEL Z 16
     6 GLL5        2 GROUP        1 Z    GLL  0     **** GLL Z 20
@<TRIPOS>SET

