#    Name: 1j4i_TST_1_ligand
#    Modification time : Tue Mar 25 08:37:07 2014

@<TRIPOS>MOLECULE
1j4i_TST_1_ligand
   52    53     1     0     0
SMALL
NO_CHARGES


@<TRIPOS>ATOM
      1 S1         32.9940  -34.9600  -42.9870 S.3       1 TST201      0.0000 
      2 C1         32.7260  -33.1570  -43.1220 C.3       1 TST201      0.0000 
      3 C2         32.1540  -32.8250  -41.6250 C.3       1 TST201      0.0000 
      4 N1         30.6550  -33.2680  -41.7420 N.pl3     1 TST201      0.0000 
      5 C3         30.6370  -34.9140  -41.7270 C.3       1 TST201      0.0000 
      6 C4         31.4560  -35.3880  -43.1270 C.3       1 TST201      0.0000 
      7 C5         31.2320  -35.6080  -40.3010 C.2       1 TST201      0.0000 
      8 N2         31.5560  -34.7610  -39.3400 N.am      1 TST201      0.0000 
      9 O1         31.4760  -36.7300  -40.4040 O.2       1 TST201      0.0000 
     10 C6         32.3510  -35.2000  -38.2540 C.3       1 TST201      0.0000 
     11 C7         32.9630  -34.0120  -37.5010 C.3       1 TST201      0.0000 
     12 C8         31.5350  -36.1220  -37.2190 C.2       1 TST201      0.0000 
     13 O2         30.2000  -36.3360  -37.4340 O.co2     1 TST201      0.0000 
     14 O3         32.0960  -36.5500  -36.3240 O.co2     1 TST201      0.0000 
     15 C9         32.1480  -32.7520  -37.4770 C.3       1 TST201      0.0000 
     16 C10        32.9350  -31.5410  -36.8470 C.3       1 TST201      0.0000 
     17 S2         29.3420  -32.3720  -41.8800 S.o2      1 TST201      0.0000 
     18 C11        29.1910  -31.5760  -40.4200 C.ar      1 TST201      0.0000 
     19 C12        29.6890  -30.1850  -40.2990 C.ar      1 TST201      0.0000 
     20 C13        29.5590  -29.4800  -38.9860 C.ar      1 TST201      0.0000 
     21 C14        28.9590  -30.1070  -37.8660 C.ar      1 TST201      0.0000 
     22 C15        28.4660  -31.4560  -37.9700 C.ar      1 TST201      0.0000 
     23 C16        28.5830  -32.2000  -39.2250 C.ar      1 TST201      0.0000 
     24 C17        28.8260  -29.3790  -36.5430 C.3       1 TST201      0.0000 
     25 O4         28.2250  -33.2280  -42.0040 O.2       1 TST201      0.0000 
     26 O5         29.8730  -31.5720  -42.9200 O.2       1 TST201      0.0000 
     27 C18        30.9210  -33.0670  -36.6230 C.3       1 TST201      0.0000 
     28 H          32.0012  -33.0757  -43.8173 H         1 TST201      0.0000 
     29 H          33.6548  -32.7874  -43.2494 H         1 TST201      0.0000 
     30 H          32.2195  -31.7993  -41.4831 H         1 TST201      0.0000 
     31 H          32.6605  -33.4315  -40.9526 H         1 TST201      0.0000 
     32 H          29.6201  -35.2224  -41.8604 H         1 TST201      0.0000 
     33 H          31.3748  -36.4374  -43.1843 H         1 TST201      0.0000 
     34 H          31.0071  -34.8723  -43.9293 H         1 TST201      0.0000 
     35 H          31.2509  -33.7719  -39.3421 H         1 TST201      0.0000 
     36 H          33.1884  -35.8256  -38.5954 H         1 TST201      0.0000 
     37 H          33.9617  -33.7974  -37.9473 H         1 TST201      0.0000 
     38 H          33.1722  -34.3365  -36.4553 H         1 TST201      0.0000 
     39 H          31.8309  -32.4935  -38.4540 H         1 TST201      0.0000 
     40 H          30.1014  -29.7253  -41.0701 H         1 TST201      0.0000 
     41 H          29.9198  -28.5300  -38.9301 H         1 TST201      0.0000 
     42 H          28.0319  -31.9039  -37.1717 H         1 TST201      0.0000 
     43 H          28.2477  -33.1478  -39.2820 H         1 TST201      0.0000 
     44 H          33.2088  -31.7266  -35.9033 H         1 TST201      0.0000 
     45 H          33.7687  -31.3334  -37.3587 H         1 TST201      0.0000 
     46 H          32.3839  -30.7066  -36.8336 H         1 TST201      0.0000 
     47 H          29.7161  -29.1052  -36.1786 H         1 TST201      0.0000 
     48 H          28.2767  -28.5479  -36.6300 H         1 TST201      0.0000 
     49 H          28.3875  -29.9488  -35.8480 H         1 TST201      0.0000 
     50 H          31.1742  -33.3319  -35.6926 H         1 TST201      0.0000 
     51 H          30.3091  -32.2797  -36.5474 H         1 TST201      0.0000 
     52 H          30.3849  -33.8191  -37.0063 H         1 TST201      0.0000 
@<TRIPOS>BOND
     1    2    1 1    
     2    6    1 1    
     3    3    2 1    
     4   28    2 1    
     5   29    2 1    
     6    4    3 1    
     7   30    3 1    
     8   31    3 1    
     9    5    4 1    
    10   17    4 1    
    11    6    5 1    
    12    7    5 1    
    13   32    5 1    
    14   33    6 1    
    15   34    6 1    
    16    8    7 am   
    17    9    7 2    
    18   10    8 1    
    19   35    8 1    
    20   11   10 1    
    21   12   10 1    
    22   36   10 1    
    23   15   11 1    
    24   37   11 1    
    25   38   11 1    
    26   13   12 ar   
    27   14   12 ar   
    28   16   15 1    
    29   27   15 1    
    30   39   15 1    
    31   44   16 1    
    32   45   16 1    
    33   46   16 1    
    34   18   17 1    
    35   25   17 2    
    36   26   17 2    
    37   19   18 ar   
    38   23   18 ar   
    39   20   19 ar   
    40   40   19 1    
    41   21   20 ar   
    42   41   20 1    
    43   22   21 ar   
    44   24   21 1    
    45   23   22 ar   
    46   42   22 1    
    47   43   23 1    
    48   47   24 1    
    49   48   24 1    
    50   49   24 1    
    51   50   27 1    
    52   51   27 1    
    53   52   27 1    
@<TRIPOS>SUBSTRUCTURE
     1 TST201      1 GROUP   
@<TRIPOS>SET

