#    Name: 1y0s_331_2_INTS_M
#    Modification time : Tue Mar 25 10:46:46 2014

@<TRIPOS>MOLECULE
1y0s_331_2_INTS_M
   93     0     6     0     0
SMALL
NO_CHARGES


@<TRIPOS>ATOM
      1 CA          2.0125    1.8910   16.6430 C.3       2 GLC5        0.0000 
      2 CA          2.3790    0.1140   16.2000 C.3       6 GLL5        0.0000 
      3 CA          1.6460    3.6680   17.0860 C.3       4 GLP5        0.0000 
      4 CA         -1.9005    0.9825   16.1705 C.3       2 GLC5        0.0000 
      5 CA          0.1540    0.6110   15.3570 C.3       6 GLL5        0.0000 
      6 CA         -3.9550    1.3540   16.9840 C.3       4 GLP5        0.0000 
      7 CA          0.1675    2.1160   16.0090 C.3       2 GLC5        0.0000 
      8 CA          0.1810    3.6210   16.6610 C.3       4 GLP5        0.0000 
      9 CA         -2.2340   -0.6725    9.5900 C.3       2 GLC5        0.0000 
     10 CA         -1.2890    0.2540   11.0810 C.3       6 GLL5        0.0000 
     11 CA         -3.1790   -1.5990    8.0990 C.3       4 GLP5        0.0000 
     12 CA         -1.9585    2.6610    9.1125 C.3       2 GLC5        0.0000 
     13 CA         -0.1270    1.8810    9.5760 C.3       6 GLL5        0.0000 
     14 CA         -3.7900    3.4410    8.6490 C.3       4 GLP5        0.0000 
     15 CA          3.6405   -2.3590   17.0895 C.3       2 GLC5        0.0000 
     16 CA          4.6200   -0.4000   16.8420 C.3       6 GLL5        0.0000 
     17 CA          2.6610   -4.3180   17.3370 C.3       4 GLP5        0.0000 
     18 CA         -1.9395    2.4280   13.4355 C.3       2 GLC5        0.0000 
     19 CA         -2.3400    0.9110   11.9600 C.3       6 GLL5        0.0000 
     20 CA         -1.5390    3.9450   14.9110 C.3       4 GLP5        0.0000 
     21 CA         -3.0650    2.1760   10.3045 C.3       2 GLC5        0.0000 
     22 CA         -4.7455    1.9330   10.1450 C.3       2 GLC5        0.0000 
     23 CA         -4.4010    0.1050   10.9130 C.3       6 GLL5        0.0000 
     24 CA         -5.0900    3.7610    9.3770 C.3       4 GLP5        0.0000 
     25 CA         -1.3545    1.8835    4.0690 C.3       2 GLC5        0.0000 
     26 CA          0.5870    1.9020    4.6950 C.3       6 GLL5        0.0000 
     27 CA         -3.2960    1.8650    3.4430 C.3       4 GLP5        0.0000 
     28 CA          1.1885   -0.1450    3.0455 C.3       2 GLC5        0.0000 
     29 CA          1.4320    1.7210    3.4610 C.3       6 GLL5        0.0000 
     30 CA          0.9450   -2.0110    2.6300 C.3       4 GLP5        0.0000 
     31 N          -7.6565   -2.1525   12.7310 N.am      1 SEC2        0.0000 
     32 N          -6.8040   -2.5860   11.5890 N.am      5 SEL2        0.0000 
     33 N          -8.5090   -1.7190   13.8730 N.am      3 SEP2        0.0000 
     34 CA          1.4235    2.5270    0.3915 C.3       2 GLC5        0.0000 
     35 CA          1.1300    2.8110    2.4570 C.3       6 GLL5        0.0000 
     36 CA          1.7170    2.2430   -1.6740 C.3       4 GLP5        0.0000 
     37 CA         -0.8710    2.4095    1.7220 C.3       2 GLC5        0.0000 
     38 CA         -2.8720    2.0080    0.9870 C.3       4 GLP5        0.0000 
     39 CA         -5.2775   -5.6685    9.1905 C.3       2 GLC5        0.0000 
     40 CA         -5.7050   -4.7800   10.7540 C.3       6 GLL5        0.0000 
     41 CA         -4.8500   -6.5570    7.6270 C.3       4 GLP5        0.0000 
     42 CA         -8.3245   -3.7365    9.1860 C.3       2 GLC5        0.0000 
     43 CA         -8.0660   -4.4840   11.0270 C.3       6 GLL5        0.0000 
     44 CA         -8.5830   -2.9890    7.3450 C.3       4 GLP5        0.0000 
     45 CA         -9.5560   -3.4830   10.9315 C.3       2 GLC5        0.0000 
     46 CA        -11.0460   -2.4820   10.8360 C.3       4 GLP5        0.0000 
     47 CA         -8.6845   -5.4985   12.8445 C.3       2 GLC5        0.0000 
     48 CA         -9.3030   -6.5130   14.6620 C.3       4 GLP5        0.0000 
     49 N          -5.8300   -5.5080   14.6510 N.am      1 SEC2        0.0000 
     50 N          -5.7810   -5.5570   13.2890 N.am      5 SEL2        0.0000 
     51 N          -5.8790   -5.4590   16.0130 N.am      3 SEP2        0.0000 
     52 N          -7.8265   -2.8855   13.8970 N.am      1 SEC2        0.0000 
     53 N          -7.1440   -4.0520   13.9210 N.am      5 SEL2        0.0000 
     54 CA         -3.7430   -2.9500    9.3060 C.3       2 GLC5        0.0000 
     55 CA         -4.3070   -4.3010   10.5130 C.3       6 GLL5        0.0000 
     56 CA         -3.4090   -5.1635    9.4660 C.3       2 GLC5        0.0000 
     57 CA         -2.5110   -6.0260    8.4190 C.3       4 GLP5        0.0000 
     58 CA          1.6517    1.8824   14.1224 C.3       2 GLC5        0.0000 
     59 CA          1.8750    0.2280   13.7740 C.3       6 GLL5        0.0000 
     60 CA          0.8530    3.6640   14.2590 C.3       4 GLP5        0.0000 
     61 CA         -0.0230   -0.6344   16.2189 C.3       2 GLC5        0.0000 
     62 CA          1.4650    0.3210   15.1210 C.3       6 GLL5        0.0000 
     63 CA         -1.0840   -1.6830   16.9290 C.3       4 GLP5        0.0000 
     64 CA          3.0615   -1.1876   12.5838 C.3       2 GLC5        0.0000 
     65 CA          2.7750   -2.2740   11.0580 C.3       4 GLP5        0.0000 
     66 CA          3.9480    1.6564   13.6768 C.3       2 GLC5        0.0000 
     67 CA          4.5480    3.4140   13.2440 C.3       4 GLP5        0.0000 
     68 CA          3.6907    0.3037   18.2474 C.3       2 GLC5        0.0000 
     69 CA          3.5480    0.8260   20.0510 C.3       4 GLP5        0.0000 
     70 CA         -3.5633   -0.7765    9.7622 C.3       2 GLC5        0.0000 
     71 CA         -3.4940   -0.0130   11.9380 C.3       6 GLL5        0.0000 
     72 CA         -1.4470    0.8669    7.7800 C.3       2 GLC5        0.0000 
     73 CA         -3.1710    0.0720    7.4540 C.3       4 GLP5        0.0000 
     74 CA          1.3235    3.3224    8.8645 C.3       2 GLC5        0.0000 
     75 CA          0.3350    1.8320    7.1820 C.3       6 GLL5        0.0000 
     76 CA          2.3700    4.9830    9.6230 C.3       4 GLP5        0.0000 
     77 CA          2.4945    2.5525    6.7387 C.3       2 GLC5        0.0000 
     78 CA          4.2370    3.5380    6.9040 C.3       4 GLP5        0.0000 
     79 CA          0.5375   -0.1560    4.6660 C.3       2 GLC5        0.0000 
     80 CA          1.1690    1.3020    5.9650 C.3       6 GLL5        0.0000 
     81 CA          0.1970   -1.9140    4.0020 C.3       4 GLP5        0.0000 
     82 CA         -4.3812   -1.4332    9.7093 C.3       2 GLC5        0.0000 
     83 CA         -5.4800   -0.7650   10.8430 C.3       6 GLL5        0.0000 
     84 CA         -6.9369   -0.4305   10.6785 C.3       2 GLC5        0.0000 
     85 CA         -8.5600    0.1890   10.0200 C.3       4 GLP5        0.0000 
     86 CA          2.8965    1.5850    2.5915 C.3       2 GLC5        0.0000 
     87 CA          4.5120    0.9040    2.2240 C.3       4 GLP5        0.0000 
     88 CA          1.9634    3.8016    3.7378 C.3       2 GLC5        0.0000 
     89 CA          2.8570    5.2920    4.2080 C.3       4 GLP5        0.0000 
     90 CA         -3.4040   -5.0132   11.6167 C.3       2 GLC5        0.0000 
     91 CA         -1.8020   -5.4860   12.6000 C.3       4 GLP5        0.0000 
     92 CA         -5.0400   -6.4742   10.7387 C.3       2 GLC5        0.0000 
     93 CA         -5.0740   -8.4080   10.8440 C.3       4 GLP5        0.0000 
@<TRIPOS>BOND
@<TRIPOS>SUBSTRUCTURE
     1 SEC2       31 GROUP        1 X    SEC  0     ROOT SEC X 2
     2 GLC5        1 GROUP        1 X    GLC  0     **** GLC X 6
     3 SEP2       33 GROUP        1 Y    SEP  0     ROOT SEP Y 9
     4 GLP5        3 GROUP        1 Y    GLP  0     **** GLP Y 13
     5 SEL2       32 GROUP        1 Z    SEL  0     ROOT SEL Z 16
     6 GLL5        2 GROUP        1 Z    GLL  0     **** GLL Z 20
@<TRIPOS>SET

