#    Name: 1y0s_331_2_ligand
#    Modification time : Tue Mar 25 10:46:46 2014

@<TRIPOS>MOLECULE
1y0s_331_2_ligand
   70    71     1     0     0
SMALL
NO_CHARGES


@<TRIPOS>ATOM
      1 C1          1.8750    0.2280   13.7740 C.ar      1 331479      0.0000 
      2 N2          0.9560    0.4120   12.7570 N.am      1 331479      0.0000 
      3 C3          1.4650    0.3210   15.1210 C.ar      1 331479      0.0000 
      4 C4          3.2310   -0.0730   13.5240 C.ar      1 331479      0.0000 
      5 C5          0.9860    1.1680   11.6210 C.2       1 331479      0.0000 
      6 C6          2.3790    0.1140   16.2000 C.ar      1 331479      0.0000 
      7 F7          0.1540    0.6110   15.3570 F         1 331479      0.0000 
      8 C8          4.1430   -0.2800   14.5700 C.ar      1 331479      0.0000 
      9 N9         -0.1210    1.0900   10.8100 N.am      1 331479      0.0000 
     10 O10         1.9460    1.8790   11.3260 O.2       1 331479      0.0000 
     11 C11         3.7150   -0.1880   15.8910 C.ar      1 331479      0.0000 
     12 C12        -1.2890    0.2540   11.0810 C.3       1 331479      0.0000 
     13 C13        -0.1270    1.8810    9.5760 C.3       1 331479      0.0000 
     14 F14         4.6200   -0.4000   16.8420 F         1 331479      0.0000 
     15 C15        -2.3400    0.9110   11.9600 C.3       1 331479      0.0000 
     16 C16         0.5650    1.1020    8.4840 C.3       1 331479      0.0000 
     17 C17        -3.4940   -0.0130   11.9380 C.ar      1 331479      0.0000 
     18 C18         0.3350    1.8320    7.1820 C.3       1 331479      0.0000 
     19 C19        -4.4010    0.1050   10.9130 C.ar      1 331479      0.0000 
     20 C20        -3.6860   -1.0070   12.9110 C.ar      1 331479      0.0000 
     21 C21         1.1690    1.3020    5.9650 C.3       1 331479      0.0000 
     22 C22        -5.4800   -0.7650   10.8430 C.ar      1 331479      0.0000 
     23 C23        -4.7710   -1.8760   12.8510 C.ar      1 331479      0.0000 
     24 C24         0.5870    1.9020    4.6950 C.3       1 331479      0.0000 
     25 C25        -5.6870   -1.7700   11.7960 C.ar      1 331479      0.0000 
     26 C26         1.4320    1.7210    3.4610 C.3       1 331479      0.0000 
     27 O27        -6.8040   -2.5860   11.5890 O.3       1 331479      0.0000 
     28 C28         1.1300    2.8110    2.4570 C.3       1 331479      0.0000 
     29 C29        -6.7010   -4.0160   11.6080 C.3       1 331479      0.0000 
     30 C30        -6.5110   -4.5940   13.0270 C.2       1 331479      0.0000 
     31 C31        -5.7050   -4.7800   10.7540 C.3       1 331479      0.0000 
     32 C32        -8.0660   -4.4840   11.0270 C.3       1 331479      0.0000 
     33 O33        -5.7810   -5.5570   13.2890 O.co2     1 331479      0.0000 
     34 O34        -7.1440   -4.0520   13.9210 O.co2     1 331479      0.0000 
     35 C35        -4.3070   -4.3010   10.5130 C.3       1 331479      0.0000 
     36 H           0.0104   -0.1723   12.8976 H         1 331479      0.0000 
     37 H           3.5569   -0.1419   12.5450 H         1 331479      0.0000 
     38 H           2.0618    0.1854   17.1534 H         1 331479      0.0000 
     39 H           5.1215   -0.4983   14.3563 H         1 331479      0.0000 
     40 H          -0.9779   -0.6960   11.5693 H         1 331479      0.0000 
     41 H          -1.7775   -0.0462   10.1276 H         1 331479      0.0000 
     42 H           0.3983    2.8260    9.7225 H         1 331479      0.0000 
     43 H          -1.1495    2.0962    9.2623 H         1 331479      0.0000 
     44 H          -2.6046    1.8619   11.5415 H         1 331479      0.0000 
     45 H          -1.9528    1.0142   12.9544 H         1 331479      0.0000 
     46 H           0.1456    0.1088    8.4231 H         1 331479      0.0000 
     47 H           1.6239    1.0490    8.6891 H         1 331479      0.0000 
     48 H           0.5715    2.9047    7.3068 H         1 331479      0.0000 
     49 H          -0.7335    1.7755    6.9043 H         1 331479      0.0000 
     50 H          -4.2862    0.8351   10.1953 H         1 331479      0.0000 
     51 H          -3.0045   -1.0904   13.6852 H         1 331479      0.0000 
     52 H           1.0912    0.2310    5.9411 H         1 331479      0.0000 
     53 H           2.1891    1.6137    6.0913 H         1 331479      0.0000 
     54 H          -6.1599   -0.6720   10.0595 H         1 331479      0.0000 
     55 H          -4.9033   -2.5910   13.5721 H         1 331479      0.0000 
     56 H           0.4135    2.9855    4.8621 H         1 331479      0.0000 
     57 H          -0.4145    1.4568    4.5194 H         1 331479      0.0000 
     58 H           1.2221    0.7494    3.0135 H         1 331479      0.0000 
     59 H           2.4873    1.7612    3.7314 H         1 331479      0.0000 
     60 H          -6.1996   -4.9645    9.7346 H         1 331479      0.0000 
     61 H          -5.6494   -5.8493   11.1679 H         1 331479      0.0000 
     62 H           1.3160    3.7204    2.8289 H         1 331479      0.0000 
     63 H           1.6808    2.7152    1.6279 H         1 331479      0.0000 
     64 H           0.1708    2.8004    2.1746 H         1 331479      0.0000 
     65 H          -8.2103   -4.1439   10.0977 H         1 331479      0.0000 
     66 H          -8.1306   -5.4811   10.9875 H         1 331479      0.0000 
     67 H          -8.8348   -4.1622   11.5796 H         1 331479      0.0000 
     68 H          -3.7921   -4.2136   11.3658 H         1 331479      0.0000 
     69 H          -3.7958   -4.9278    9.9249 H         1 331479      0.0000 
     70 H          -4.2927   -3.4051   10.0689 H         1 331479      0.0000 
@<TRIPOS>BOND
     1    2    1 1    
     2    3    1 ar   
     3    4    1 ar   
     4    5    2 am   
     5   36    2 1    
     6    6    3 ar   
     7    7    3 1    
     8    8    4 ar   
     9   37    4 1    
    10    9    5 am   
    11   10    5 2    
    12   11    6 ar   
    13   38    6 1    
    14   11    8 ar   
    15   39    8 1    
    16   12    9 1    
    17   13    9 1    
    18   14   11 1    
    19   15   12 1    
    20   40   12 1    
    21   41   12 1    
    22   16   13 1    
    23   42   13 1    
    24   43   13 1    
    25   17   15 1    
    26   44   15 1    
    27   45   15 1    
    28   18   16 1    
    29   46   16 1    
    30   47   16 1    
    31   19   17 ar   
    32   20   17 ar   
    33   21   18 1    
    34   48   18 1    
    35   49   18 1    
    36   22   19 ar   
    37   50   19 1    
    38   23   20 ar   
    39   51   20 1    
    40   24   21 1    
    41   52   21 1    
    42   53   21 1    
    43   25   22 ar   
    44   54   22 1    
    45   25   23 ar   
    46   55   23 1    
    47   26   24 1    
    48   56   24 1    
    49   57   24 1    
    50   27   25 1    
    51   28   26 1    
    52   58   26 1    
    53   59   26 1    
    54   29   27 1    
    55   62   28 1    
    56   63   28 1    
    57   64   28 1    
    58   30   29 1    
    59   31   29 1    
    60   32   29 1    
    61   33   30 ar   
    62   34   30 ar   
    63   35   31 1    
    64   60   31 1    
    65   61   31 1    
    66   65   32 1    
    67   66   32 1    
    68   67   32 1    
    69   68   35 1    
    70   69   35 1    
    71   70   35 1    
@<TRIPOS>SUBSTRUCTURE
     1 331479      1 GROUP   
@<TRIPOS>SET

