#    Name: 3qro_NK9_1_INTS_M
#    Modification time : Mon Apr  7 19:49:24 2014

@<TRIPOS>MOLECULE
3qro_NK9_1_INTS_M
   89     0    12     0     0
SMALL
NO_CHARGES


@<TRIPOS>ATOM
      1 CA        -15.8450   15.9360   -3.5520 C.3       4 GLC5        0.0000 
      2 CA        -16.0330   17.2840   -4.7470 C.3      12 GLL5        0.0000 
      3 CA        -15.6570   14.5880   -2.3570 C.3       8 GLP5        0.0000 
      4 CA        -16.6385   15.4800   -5.2220 C.3       4 GLC5        0.0000 
      5 CA        -17.2440   13.6760   -5.6970 C.3       8 GLP5        0.0000 
      6 OD1       -15.1690   17.0955   -6.8930 O.co2     3 ASC3        0.0000 
      7 OD1       -16.7550   17.7570   -7.0000 O.co2    11 ASL3        0.0000 
      8 OD1       -13.5830   16.4340   -6.7860 O.co2     7 ASP3        0.0000 
      9 CA        -17.9645   19.3355   -9.7340 C.3       4 GLC5        0.0000 
     10 CA        -17.7340   18.2770   -7.9580 C.3      12 GLL5        0.0000 
     11 CA        -18.1950   20.3940  -11.5100 C.3       8 GLP5        0.0000 
     12 CA        -20.1630   20.2125   -8.0675 C.3       4 GLC5        0.0000 
     13 CA        -20.2080   18.0760   -7.3940 C.3      12 GLL5        0.0000 
     14 CA        -20.1180   22.3490   -8.7410 C.3       8 GLP5        0.0000 
     15 N         -23.3925   19.0000   -7.6710 N.am      2 SEC2        0.0000 
     16 N         -22.5550   17.8730   -6.8680 N.am     10 SEL2        0.0000 
     17 N         -24.2300   20.1270   -8.4740 N.am      6 SEP2        0.0000 
     18 O         -22.5085   19.1825   -6.6135 O.2       1 ALC1        0.0000 
     19 O         -22.5550   17.8730   -6.8680 O.2       9 ALL1        0.0000 
     20 O         -22.4620   20.4920   -6.3590 O.2       5 ALP1        0.0000 
     21 CA        -18.7315   14.5415   -6.9325 C.3       4 GLC5        0.0000 
     22 CA        -20.2190   15.4070   -8.1680 C.3      12 GLL5        0.0000 
     23 CA        -20.4805   13.4885   -9.2305 C.3       4 GLC5        0.0000 
     24 CA        -20.7420   11.5700  -10.2930 C.3       8 GLP5        0.0000 
     25 N         -19.9205   12.6645   -8.3590 N.am      2 SEC2        0.0000 
     26 N         -20.2450   14.0930   -8.5510 N.am     10 SEL2        0.0000 
     27 N         -19.5960   11.2360   -8.1670 N.am      6 SEP2        0.0000 
     28 O         -21.3480   13.4370   -8.7730 O.2       1 ALC1        0.0000 
     29 O         -20.2450   14.0930   -8.5510 O.2       9 ALL1        0.0000 
     30 O         -22.4510   12.7810   -8.9950 O.2       5 ALP1        0.0000 
     31 CA        -17.7405   14.9815   -7.6110 C.3       4 GLC5        0.0000 
     32 CA        -19.0440   16.1490   -8.2420 C.3      12 GLL5        0.0000 
     33 CA        -16.4370   13.8140   -6.9800 C.3       8 GLP5        0.0000 
     34 N         -17.4755   22.9960   -7.5755 N.am      2 SEC2        0.0000 
     35 N         -17.4250   22.2030   -6.3280 N.am     10 SEL2        0.0000 
     36 N         -17.5260   23.7890   -8.8230 N.am      6 SEP2        0.0000 
     37 N         -19.2640   23.6580   -4.4805 N.am      2 SEC2        0.0000 
     38 N         -18.3310   22.5830   -4.1620 N.am     10 SEL2        0.0000 
     39 N         -20.1970   24.7330   -4.7990 N.am      6 SEP2        0.0000 
     40 CA        -14.4580   24.7615   -0.8275 C.3       4 GLC5        0.0000 
     41 CA        -14.4780   23.6240   -2.6210 C.3      12 GLL5        0.0000 
     42 CA        -14.4380   25.8990    0.9660 C.3       8 GLP5        0.0000 
     43 N         -10.4155   24.0595   -1.3055 N.am      2 SEC2        0.0000 
     44 N         -11.6960   24.2620   -1.9920 N.am     10 SEL2        0.0000 
     45 N          -9.1350   23.8570   -0.6190 N.am      6 SEP2        0.0000 
     46 CA        -12.3465   22.1250   -3.8075 C.3       4 GLC5        0.0000 
     47 CA        -13.6140   23.5310   -4.8630 C.3      12 GLL5        0.0000 
     48 CA        -11.0790   20.7190   -2.7520 C.3       8 GLP5        0.0000 
     49 CA        -22.1820   14.2185   -0.6400 C.3       4 GLC5        0.0000 
     50 CA        -22.3330   16.0790   -1.6240 C.3      12 GLL5        0.0000 
     51 CA        -22.0310   12.3580    0.3440 C.3       8 GLP5        0.0000 
     52 CA        -23.2470   19.6785   -1.5985 C.3       4 GLC5        0.0000 
     53 CA        -23.2070   17.9320   -2.0070 C.3      12 GLL5        0.0000 
     54 CA        -23.2870   21.4250   -1.1900 C.3       8 GLP5        0.0000 
     55 CA        -22.9725   18.1415    0.1185 C.3       4 GLC5        0.0000 
     56 CA        -22.7380   18.3510    2.2440 C.3       8 GLP5        0.0000 
     57 CA        -22.5222   17.1355   -8.9865 C.3       4 GLC5        0.0000 
     58 CA        -21.3810   15.9860   -7.7010 C.3      12 GLL5        0.0000 
     59 CA        -23.6640   17.6150  -10.4630 C.3       8 GLP5        0.0000 
     60 CA        -19.0708   15.3385  -10.1930 C.3       4 GLC5        0.0000 
     61 CA        -18.5100   14.8990  -12.1810 C.3       8 GLP5        0.0000 
     62 CA        -20.5578   16.5195  -10.0025 C.3       4 GLC5        0.0000 
     63 CA        -21.4840   17.2610  -11.8000 C.3       8 GLP5        0.0000 
     64 CA        -17.1595   16.4690   -8.9480 C.3       4 GLC5        0.0000 
     65 CA        -15.6060   15.9220   -9.8210 C.3       8 GLP5        0.0000 
     66 CA        -16.0998   22.4593   -1.4730 C.3       4 GLC5        0.0000 
     67 CA        -17.1260   21.5820   -0.0900 C.3       8 GLP5        0.0000 
     68 CA        -16.1240   24.6406   -2.5769 C.3       4 GLC5        0.0000 
     69 CA        -17.1260   26.0300   -1.9630 C.3       8 GLP5        0.0000 
     70 CA        -13.1789   22.2294   -2.4065 C.3       4 GLC5        0.0000 
     71 CA        -15.6690   23.0490   -3.0910 C.3      12 GLL5        0.0000 
     72 CA        -12.0960   20.8530   -1.6210 C.3       8 GLP5        0.0000 
     73 CA        -15.3242   24.2659   -6.2411 C.3       4 GLC5        0.0000 
     74 CA        -16.1730   25.3510   -7.6150 C.3       8 GLP5        0.0000 
     75 CA        -20.6595   20.5917   -2.5900 C.3       4 GLC5        0.0000 
     76 CA        -18.8310   19.2370   -3.1060 C.3      12 GLL5        0.0000 
     77 CA        -21.9230   21.7910   -1.7010 C.3       8 GLP5        0.0000 
     78 CA        -21.0940   21.0533   -4.5812 C.3       4 GLC5        0.0000 
     79 CA        -19.9610   19.5480   -3.8520 C.3      12 GLL5        0.0000 
     80 CA        -21.6350   22.9140   -5.4090 C.3       8 GLP5        0.0000 
     81 CA        -21.5482   20.0613   -2.4402 C.3       4 GLC5        0.0000 
     82 CA        -21.1450   18.8370   -3.6550 C.3      12 GLL5        0.0000 
     83 CA        -18.6250   16.9080   -0.8462 C.3       4 GLC5        0.0000 
     84 CA        -20.0650   17.5030   -1.9690 C.3      12 GLL5        0.0000 
     85 CA        -17.7750   15.9540    0.3710 C.3       8 GLP5        0.0000 
     86 CA        -19.9120   18.3585   -0.2088 C.3       4 GLC5        0.0000 
     87 CA        -18.8850   18.2210   -2.1580 C.3      12 GLL5        0.0000 
     88 CA        -20.3490   18.8550    1.6460 C.3       8 GLP5        0.0000 
     89 CA        -17.8294   20.2505   -1.3798 C.3       4 GLC5        0.0000 
@<TRIPOS>BOND
@<TRIPOS>SUBSTRUCTURE
     1 ALC1       18 GROUP        1 X    ALC  0     ROOT ALC X 1
     2 SEC2       15 GROUP        1 X    SEC  0     **** SEC X 2
     3 ASC3        6 GROUP        1 X    ASC  0     **** ASC X 3
     4 GLC5        1 GROUP        1 X    GLC  0     **** GLC X 6
     5 ALP1       20 GROUP        1 Y    ALP  0     ROOT ALP Y 8
     6 SEP2       17 GROUP        1 Y    SEP  0     **** SEP Y 9
     7 ASP3        8 GROUP        1 Y    ASP  0     **** ASP Y 10
     8 GLP5        3 GROUP        1 Y    GLP  0     **** GLP Y 13
     9 ALL1       19 GROUP        1 Z    ALL  0     ROOT ALL Z 15
    10 SEL2       16 GROUP        1 Z    SEL  0     **** SEL Z 16
    11 ASL3        7 GROUP        1 Z    ASL  0     **** ASL Z 17
    12 GLL5        2 GROUP        1 Z    GLL  0     **** GLL Z 20
@<TRIPOS>SET

