#    Name: 3qro_NK9_1_ligand
#    Modification time : Mon Apr  7 19:49:24 2014

@<TRIPOS>MOLECULE
3qro_NK9_1_ligand
   64    67     1     0     0
SMALL
NO_CHARGES


@<TRIPOS>ATOM
      1 C1        -14.9640   19.4030   -4.8700 C.3       1 NK9100      0.0000 
      2 N2        -14.7470   17.9610   -4.7570 N.3       1 NK9100      0.0000 
      3 C3        -16.0330   17.2840   -4.7470 C.3       1 NK9100      0.0000 
      4 C4        -16.9200   18.1760   -5.6120 C.3       1 NK9100      0.0000 
      5 N5        -16.7550   17.7570   -7.0000 N.4       1 NK9100      0.0000 
      6 C6        -17.7340   18.2770   -7.9580 C.3       1 NK9100      0.0000 
      7 C7        -19.0300   17.4890   -7.8580 C.ar      1 NK9100      0.0000 
      8 C8        -20.2080   18.0760   -7.3940 C.ar      1 NK9100      0.0000 
      9 C9        -21.3800   17.3260   -7.3190 C.ar      1 NK9100      0.0000 
     10 O10       -22.5550   17.8730   -6.8680 O.3       1 NK9100      0.0000 
     11 C11       -21.3810   15.9860   -7.7010 C.ar      1 NK9100      0.0000 
     12 C12       -20.2190   15.4070   -8.1680 C.ar      1 NK9100      0.0000 
     13 O13       -20.2450   14.0930   -8.5510 O.3       1 NK9100      0.0000 
     14 C14       -19.0440   16.1490   -8.2420 C.ar      1 NK9100      0.0000 
     15 C15       -16.3710   19.5950   -5.4700 C.3       1 NK9100      0.0000 
     16 N16       -17.0810   20.5170   -4.5560 N.pl3     1 NK9100      0.0000 
     17 S17       -17.2620   22.0320   -4.9160 S.o2      1 NK9100      0.0000 
     18 O18       -17.4250   22.2030   -6.3280 O.2       1 NK9100      0.0000 
     19 O19       -18.3310   22.5830   -4.1620 O.2       1 NK9100      0.0000 
     20 C20       -15.8630   22.7080   -4.4300 C.ar      1 NK9100      0.0000 
     21 C21       -15.6690   23.0490   -3.0910 C.ar      1 NK9100      0.0000 
     22 C22       -14.4780   23.6240   -2.6210 C.ar      1 NK9100      0.0000 
     23 C23       -13.4500   23.8750   -3.5280 C.ar      1 NK9100      0.0000 
     24 C24       -12.1520   24.5120   -3.0880 C.2       1 NK9100      0.0000 
     25 N25       -11.5710   25.3720   -3.9200 N.am      1 NK9100      0.0000 
     26 O26       -11.6960   24.2620   -1.9920 O.2       1 NK9100      0.0000 
     27 C27       -13.6140   23.5310   -4.8630 C.ar      1 NK9100      0.0000 
     28 C28       -14.8110   22.9530   -5.3130 C.ar      1 NK9100      0.0000 
     29 C29       -17.5300   19.9970   -3.2560 C.3       1 NK9100      0.0000 
     30 C30       -18.8310   19.2370   -3.1060 C.ar      1 NK9100      0.0000 
     31 C31       -19.9610   19.5480   -3.8520 C.ar      1 NK9100      0.0000 
     32 C32       -21.1450   18.8370   -3.6550 C.ar      1 NK9100      0.0000 
     33 C33       -21.2020   17.8260   -2.7040 C.ar      1 NK9100      0.0000 
     34 C34       -22.4170   17.0060   -2.4940 C.3       1 NK9100      0.0000 
     35 F35       -22.3330   16.0790   -1.6240 F         1 NK9100      0.0000 
     36 F36       -22.9610   16.5540   -3.5620 F         1 NK9100      0.0000 
     37 F37       -23.2070   17.9320   -2.0070 F         1 NK9100      0.0000 
     38 C38       -20.0650   17.5030   -1.9690 C.ar      1 NK9100      0.0000 
     39 C39       -18.8850   18.2210   -2.1580 C.ar      1 NK9100      0.0000 
     40 H         -14.2483   19.8586   -5.5354 H         1 NK9100      0.0000 
     41 H         -14.9406   19.8822   -3.9044 H         1 NK9100      0.0000 
     42 H         -16.4485   17.2391   -3.7627 H         1 NK9100      0.0000 
     43 H         -15.9743   16.3171   -5.1998 H         1 NK9100      0.0000 
     44 H         -17.9013   18.1335   -5.2848 H         1 NK9100      0.0000 
     45 H         -17.3558   18.1952   -8.9808 H         1 NK9100      0.0000 
     46 H         -17.9512   19.3296   -7.7566 H         1 NK9100      0.0000 
     47 H         -20.2102   19.0629   -7.1074 H         1 NK9100      0.0000 
     48 H         -22.2468   15.4365   -7.6329 H         1 NK9100      0.0000 
     49 H         -18.1782   15.7060   -8.5827 H         1 NK9100      0.0000 
     50 H         -16.2274   20.0252   -6.4376 H         1 NK9100      0.0000 
     51 H         -16.4387   22.8706   -2.4084 H         1 NK9100      0.0000 
     52 H         -14.3715   23.8518   -1.6354 H         1 NK9100      0.0000 
     53 H         -10.6991   25.7566   -3.6170 H         1 NK9100      0.0000 
     54 H         -12.0586   25.5563   -4.7734 H         1 NK9100      0.0000 
     55 H         -12.8512   23.6995   -5.5370 H         1 NK9100      0.0000 
     56 H         -14.9107   22.7075   -6.3097 H         1 NK9100      0.0000 
     57 H         -17.5539   20.8598   -2.5014 H         1 NK9100      0.0000 
     58 H         -16.7014   19.3384   -2.8155 H         1 NK9100      0.0000 
     59 H         -19.9273   20.3018   -4.5500 H         1 NK9100      0.0000 
     60 H         -21.9766   19.0639   -4.2167 H         1 NK9100      0.0000 
     61 H         -20.0943   16.7353   -1.2866 H         1 NK9100      0.0000 
     62 H         -18.0541   17.9977   -1.5947 H         1 NK9100      0.0000 
     63 H         -22.3457   18.8372   -6.7051 H         1 NK9100      0.0000 
     64 H         -21.2156   13.8590   -8.6068 H         1 NK9100      0.0000 
@<TRIPOS>BOND
     1    2    1 1    
     2   15    1 1    
     3   40    1 1    
     4   41    1 1    
     5    3    2 1    
     6    4    3 1    
     7   42    3 1    
     8   43    3 1    
     9    5    4 1    
    10   15    4 1    
    11   44    4 1    
    12    6    5 1    
    13    7    6 1    
    14   45    6 1    
    15   46    6 1    
    16    8    7 ar   
    17   14    7 ar   
    18    9    8 ar   
    19   47    8 1    
    20   10    9 1    
    21   11    9 ar   
    22   63   10 1    
    23   12   11 ar   
    24   48   11 1    
    25   13   12 1    
    26   14   12 ar   
    27   64   13 1    
    28   49   14 1    
    29   16   15 1    
    30   50   15 1    
    31   17   16 1    
    32   29   16 1    
    33   18   17 2    
    34   19   17 2    
    35   20   17 1    
    36   21   20 ar   
    37   28   20 ar   
    38   22   21 ar   
    39   51   21 1    
    40   23   22 ar   
    41   52   22 1    
    42   24   23 1    
    43   27   23 ar   
    44   25   24 am   
    45   26   24 2    
    46   53   25 1    
    47   54   25 1    
    48   28   27 ar   
    49   55   27 1    
    50   56   28 1    
    51   30   29 1    
    52   57   29 1    
    53   58   29 1    
    54   31   30 ar   
    55   39   30 ar   
    56   32   31 ar   
    57   59   31 1    
    58   33   32 ar   
    59   60   32 1    
    60   34   33 1    
    61   38   33 ar   
    62   35   34 1    
    63   36   34 1    
    64   37   34 1    
    65   39   38 ar   
    66   61   38 1    
    67   62   39 1    
@<TRIPOS>SUBSTRUCTURE
     1 NK9100      1 GROUP   
@<TRIPOS>SET

