#    Name: 1d2h_SAH_2_INTS_M
#    Modification time : Mon Mar 24 21:17:07 2014

@<TRIPOS>MOLECULE
1d2h_SAH_2_INTS_M
   34     0     9     0     0
SMALL
NO_CHARGES


@<TRIPOS>ATOM
      1 CA         51.4900  -10.7650   15.9300 C.3       3 GLC5        0.0000 
      2 CA         51.5280   -8.6260   15.2990 C.3       9 GLL5        0.0000 
      3 CA         51.4520  -12.9040   16.5610 C.3       6 GLP5        0.0000 
      4 CA         50.9010   -9.3845   16.9080 C.3       3 GLC5        0.0000 
      5 CA         50.2740  -10.1430   18.5170 C.3       6 GLP5        0.0000 
      6 CA         52.4655  -10.5465   12.2970 C.3       3 GLC5        0.0000 
      7 CA         50.5370   -9.5800   12.8960 C.3       9 GLL5        0.0000 
      8 CA         54.3940  -11.5130   11.6980 C.3       6 GLP5        0.0000 
      9 CA         51.4285   -8.3715   10.4055 C.3       3 GLC5        0.0000 
     10 CA         50.0870   -9.2340   11.5010 C.3       9 GLL5        0.0000 
     11 CA         52.7700   -7.5090    9.3100 C.3       6 GLP5        0.0000 
     12 O          50.3045  -11.2640   10.5160 O.2       1 ALC1        0.0000 
     13 O          50.7720  -10.0660   10.5710 O.2       7 ALL1        0.0000 
     14 O          49.8370  -12.4620   10.4610 O.2       4 ALP1        0.0000 
     15 O          49.0910  -11.2475   10.3135 O.2       1 ALC1        0.0000 
     16 O          48.3450  -10.0330   10.1660 O.2       7 ALL1        0.0000 
     17 CA         43.8960  -14.7005   13.3620 C.3       3 GLC5        0.0000 
     18 CA         44.4160  -12.6890   14.1860 C.3       9 GLL5        0.0000 
     19 CA         43.3760  -16.7120   12.5380 C.3       6 GLP5        0.0000 
     20 O          42.2425  -13.6780   13.8595 O.2       1 ALC1        0.0000 
     21 O          43.1070  -12.4590   14.1360 O.2       7 ALL1        0.0000 
     22 O          41.3780  -14.8970   13.5830 O.2       4 ALP1        0.0000 
     23 N          44.0385  -15.2385   14.6520 N.am      2 SEC2        0.0000 
     24 N          44.8960  -13.9300   14.3570 N.am      8 SEL2        0.0000 
     25 N          43.1810  -16.5470   14.9470 N.am      5 SEP2        0.0000 
     26 CA         45.8805  -14.0865   11.9840 C.3       3 GLC5        0.0000 
     27 CA         46.1640  -14.2230   14.0920 C.3       9 GLL5        0.0000 
     28 CA         45.5970  -13.9500    9.8760 C.3       6 GLP5        0.0000 
     29 CA         44.7700  -15.4675   13.3150 C.3       3 GLC5        0.0000 
     30 CA         49.0755   -9.8860    9.5715 C.3       3 GLC5        0.0000 
     31 CA         48.6170   -9.5860   11.4890 C.3       9 GLL5        0.0000 
     32 CA         48.7990  -10.3620    7.6480 C.3       6 GLP5        0.0000 
     33 CA         45.7982  -12.9318   11.7437 C.3       3 GLC5        0.0000 
     34 CA         46.6520  -12.0620   13.4690 C.3       9 GLL5        0.0000 
@<TRIPOS>BOND
@<TRIPOS>SUBSTRUCTURE
     1 ALC1       12 GROUP        1 X    ALC  0     ROOT ALC X 1
     2 SEC2       23 GROUP        1 X    SEC  0     **** SEC X 2
     3 GLC5        1 GROUP        1 X    GLC  0     **** GLC X 6
     4 ALP1       14 GROUP        1 Y    ALP  0     ROOT ALP Y 8
     5 SEP2       25 GROUP        1 Y    SEP  0     **** SEP Y 9
     6 GLP5        3 GROUP        1 Y    GLP  0     **** GLP Y 13
     7 ALL1       13 GROUP        1 Z    ALL  0     ROOT ALL Z 15
     8 SEL2       24 GROUP        1 Z    SEL  0     **** SEL Z 16
     9 GLL5        2 GROUP        1 Z    GLL  0     **** GLL Z 20
@<TRIPOS>SET

