#    Name: 1d2h_SAH_2_ligand
#    Modification time : Mon Mar 24 21:17:07 2014

@<TRIPOS>MOLECULE
1d2h_SAH_2_ligand
   46    48     1     0     0
SMALL
NO_CHARGES


@<TRIPOS>ATOM
      1 N          54.5520   -9.7330   15.5650 N.4       1 SAH2301     0.0000 
      2 CA         54.9390   -8.2960   15.5600 C.3       1 SAH2301     0.0000 
      3 CB         53.8570   -7.4590   16.2520 C.3       1 SAH2301     0.0000 
      4 CG         52.6240   -7.1990   15.3920 C.3       1 SAH2301     0.0000 
      5 SD         51.5280   -8.6260   15.2990 S.3       1 SAH2301     0.0000 
      6 C          56.2730   -8.1150   16.2740 C.2       1 SAH2301     0.0000 
      7 O          56.6870   -6.9560   16.4810 O.co2     1 SAH2301     0.0000 
      8 OXT        56.8910   -9.1430   16.6160 O.co2     1 SAH2301     0.0000 
      9 C5'        50.6730   -8.3240   13.7450 C.3       1 SAH2301     0.0000 
     10 C4'        50.5370   -9.5800   12.8960 C.3       1 SAH2301     0.0000 
     11 O4'        49.5690  -10.5270   13.4000 O.3       1 SAH2301     0.0000 
     12 C3'        50.0870   -9.2340   11.5010 C.3       1 SAH2301     0.0000 
     13 O3'        50.7720  -10.0660   10.5710 O.3       1 SAH2301     0.0000 
     14 C2'        48.6170   -9.5860   11.4890 C.3       1 SAH2301     0.0000 
     15 O2'        48.3450  -10.0330   10.1660 O.3       1 SAH2301     0.0000 
     16 C1'        48.5330  -10.7590   12.4410 C.3       1 SAH2301     0.0000 
     17 N9         47.2100  -10.9070   13.1100 N.pl3     1 SAH2301     0.0000 
     18 C8         46.2720   -9.9580   13.2390 C.2       1 SAH2301     0.0000 
     19 N7         45.1020  -10.4740   13.6330 N.2       1 SAH2301     0.0000 
     20 C5         45.3470  -11.7650   13.7540 C.ar      1 SAH2301     0.0000 
     21 C6         44.4160  -12.6890   14.1860 C.ar      1 SAH2301     0.0000 
     22 N6         43.1070  -12.4590   14.1360 N.pl3     1 SAH2301     0.0000 
     23 N1         44.8960  -13.9300   14.3570 N.ar      1 SAH2301     0.0000 
     24 C2         46.1640  -14.2230   14.0920 C.ar      1 SAH2301     0.0000 
     25 N3         47.0390  -13.3310   13.6480 N.ar      1 SAH2301     0.0000 
     26 C4         46.6520  -12.0620   13.4690 C.ar      1 SAH2301     0.0000 
     27 H          55.0409   -7.9487   14.5455 H         1 SAH2301     0.0000 
     28 H          54.2952   -6.4930   16.5537 H         1 SAH2301     0.0000 
     29 H          53.5482   -7.9740   17.1770 H         1 SAH2301     0.0000 
     30 H          52.8555   -7.0142   14.3598 H         1 SAH2301     0.0000 
     31 H          51.9810   -6.4357   15.7884 H         1 SAH2301     0.0000 
     32 H          51.2789   -7.5632   13.2884 H         1 SAH2301     0.0000 
     33 H          49.7303   -7.9240   14.0703 H         1 SAH2301     0.0000 
     34 H          51.5123  -10.0546   12.8117 H         1 SAH2301     0.0000 
     35 H          50.2057   -8.2123   11.3325 H         1 SAH2301     0.0000 
     36 H          48.0580   -8.7990   11.8136 H         1 SAH2301     0.0000 
     37 H          48.7640  -11.6579   11.8745 H         1 SAH2301     0.0000 
     38 H          46.4269   -8.9964   13.0643 H         1 SAH2301     0.0000 
     39 H          42.8303  -11.5671   13.7783 H         1 SAH2301     0.0000 
     40 H          42.5176  -13.1987   14.4606 H         1 SAH2301     0.0000 
     41 H          46.4956  -15.2303   14.2448 H         1 SAH2301     0.0000 
     42 H          53.5591   -9.8503   15.5442 H         1 SAH2301     0.0000 
     43 H          54.9213  -10.2198   14.7734 H         1 SAH2301     0.0000 
     44 H          54.8859  -10.2047   16.3811 H         1 SAH2301     0.0000 
     45 H          50.0848  -10.7194   10.2533 H         1 SAH2301     0.0000 
     46 H          48.7843  -10.9289   10.1002 H         1 SAH2301     0.0000 
@<TRIPOS>BOND
     1    2    1 1    
     2   42    1 1    
     3   43    1 1    
     4   44    1 1    
     5    3    2 1    
     6    6    2 1    
     7   27    2 1    
     8    4    3 1    
     9   28    3 1    
    10   29    3 1    
    11    5    4 1    
    12   30    4 1    
    13   31    4 1    
    14    9    5 1    
    15    7    6 ar   
    16    8    6 ar   
    17   10    9 1    
    18   32    9 1    
    19   33    9 1    
    20   11   10 1    
    21   12   10 1    
    22   34   10 1    
    23   16   11 1    
    24   13   12 1    
    25   14   12 1    
    26   35   12 1    
    27   45   13 1    
    28   15   14 1    
    29   16   14 1    
    30   36   14 1    
    31   46   15 1    
    32   17   16 1    
    33   37   16 1    
    34   18   17 1    
    35   26   17 1    
    36   19   18 2    
    37   38   18 1    
    38   20   19 1    
    39   21   20 ar   
    40   26   20 ar   
    41   22   21 1    
    42   23   21 ar   
    43   39   22 1    
    44   40   22 1    
    45   24   23 ar   
    46   25   24 ar   
    47   41   24 1    
    48   26   25 ar   
@<TRIPOS>SUBSTRUCTURE
     1 SAH2301     1 GROUP   
@<TRIPOS>SET

