#    Name: 4iu7_1GM_1_INTS_M
#    Modification time : Tue Mar 25 04:36:45 2014

@<TRIPOS>MOLECULE
4iu7_1GM_1_INTS_M
   84     0     9     0     0
SMALL
NO_CHARGES


@<TRIPOS>ATOM
      1 CA         24.3870   14.1025    4.5775 C.3       3 GLC5        0.0000 
      2 CA         22.4790   14.7850    4.8290 C.3       9 GLL5        0.0000 
      3 CA         26.2950   13.4200    4.3260 C.3       6 GLP5        0.0000 
      4 CA         20.9665   17.2215    5.4500 C.3       3 GLC5        0.0000 
      5 CA         21.0190   15.1480    5.0890 C.3       9 GLL5        0.0000 
      6 CA         20.9140   19.2950    5.8110 C.3       6 GLP5        0.0000 
      7 CA         19.5690   15.9800    6.1100 C.3       3 GLC5        0.0000 
      8 CA         18.1190   16.8120    7.1310 C.3       6 GLP5        0.0000 
      9 CA         20.0515   16.8000    4.1000 C.3       3 GLC5        0.0000 
     10 CA         19.0840   18.4520    3.1110 C.3       6 GLP5        0.0000 
     11 CA         22.8045   10.5900    7.6145 C.3       3 GLC5        0.0000 
     12 CA         21.5360   11.1700    8.5770 C.3       9 GLL5        0.0000 
     13 CA         24.0730   10.0100    6.6520 C.3       6 GLP5        0.0000 
     14 CA         22.6745   12.3755    8.6130 C.3       3 GLC5        0.0000 
     15 CA         23.8130   13.5810    8.6490 C.3       6 GLP5        0.0000 
     16 CA         19.4320   14.8520    9.4990 C.3       3 GLC5        0.0000 
     17 CA         20.4210   12.8470    9.3880 C.3       9 GLL5        0.0000 
     18 CA         18.4430   16.8570    9.6100 C.3       6 GLP5        0.0000 
     19 CA         18.7760   10.3320   11.0675 C.3       3 GLC5        0.0000 
     20 CA         19.9180   10.8540    9.9670 C.3       9 GLL5        0.0000 
     21 CA         17.6340    9.8100   12.1680 C.3       6 GLP5        0.0000 
     22 CA         20.8740   10.7780   11.6215 C.3       3 GLC5        0.0000 
     23 CA         21.8300   10.7020   13.2760 C.3       6 GLP5        0.0000 
     24 CA         16.0265   11.2150    4.1890 C.3       3 GLC5        0.0000 
     25 CA         17.8040   11.4140    5.5340 C.3       9 GLL5        0.0000 
     26 CA         14.2490   11.0160    2.8440 C.3       6 GLP5        0.0000 
     27 CA         18.6555   15.0855    6.0055 C.3       3 GLC5        0.0000 
     28 CA         19.1920   13.3590    4.8800 C.3       9 GLL5        0.0000 
     29 CA         18.3955   11.7575    3.5310 C.3       3 GLC5        0.0000 
     30 CA         17.5990   10.1560    2.1820 C.3       6 GLP5        0.0000 
     31 CA         15.8540   14.4785    5.1505 C.3       3 GLC5        0.0000 
     32 CA         17.2840   13.9620    3.6020 C.3       9 GLL5        0.0000 
     33 CA         14.4240   14.9950    6.6990 C.3       6 GLP5        0.0000 
     34 CA         15.7665   12.4890    3.2230 C.3       3 GLC5        0.0000 
     35 CA         14.9470   15.0175    3.4780 C.3       3 GLC5        0.0000 
     36 CA         16.7290   14.3090    2.3530 C.3       9 GLL5        0.0000 
     37 CA         13.1650   15.7260    4.6030 C.3       6 GLP5        0.0000 
     38 CA         14.9195   13.5715    1.9500 C.3       3 GLC5        0.0000 
     39 CA         13.1100   12.8340    1.5470 C.3       6 GLP5        0.0000 
     40 N          15.8735   14.2000   -0.9360 N.am      2 SEC2        0.0000 
     41 N          16.9890   14.7280    0.0130 N.am      8 SEL2        0.0000 
     42 N          14.7580   13.6720   -1.8850 N.am      5 SEP2        0.0000 
     43 O          17.8065   15.4450   -0.7545 O.2       1 ALC1        0.0000 
     44 O          16.9890   14.7280    0.0130 O.2       7 ALL1        0.0000 
     45 O          18.6240   16.1620   -1.5220 O.2       4 ALP1        0.0000 
     46 CA         19.2445   13.4140   -0.8115 C.3       3 GLC5        0.0000 
     47 CA         18.9240   14.1230    1.2810 C.3       9 GLL5        0.0000 
     48 CA         19.5650   12.7050   -2.9040 C.3       6 GLP5        0.0000 
     49 CA         20.3545   11.8460    2.5430 C.3       3 GLC5        0.0000 
     50 CA         19.4800   13.7740    2.5200 C.3       9 GLL5        0.0000 
     51 CA         21.2290    9.9180    2.5660 C.3       6 GLP5        0.0000 
     52 O          21.8600   13.5075    1.7750 O.2       1 ALC1        0.0000 
     53 O          20.8070   13.5130    2.6150 O.2       7 ALL1        0.0000 
     54 O          22.9130   13.5020    0.9350 O.2       4 ALP1        0.0000 
     55 CA         22.0710   15.7803    3.3535 C.3       3 GLC5        0.0000 
     56 CA         22.3930   16.5940    1.7480 C.3       6 GLP5        0.0000 
     57 CA         22.1005   15.3182    6.9050 C.3       3 GLC5        0.0000 
     58 CA         22.4520   15.6700    8.8510 C.3       6 GLP5        0.0000 
     59 CA         17.3855   12.3805    8.2365 C.3       3 GLC5        0.0000 
     60 CA         19.4580   11.5240    7.7830 C.3       9 GLL5        0.0000 
     61 CA         15.8160   13.7370    8.7370 C.3       6 GLP5        0.0000 
     62 CA         21.7005   13.3517    9.3750 C.3       3 GLC5        0.0000 
     63 CA         23.0340   14.4810    9.5990 C.3       6 GLP5        0.0000 
     64 CA         20.8206    9.4300    9.2161 C.3       3 GLC5        0.0000 
     65 CA         20.3130   11.5980    8.9140 C.3       9 GLL5        0.0000 
     66 CA         21.2200    7.7410    9.0760 C.3       6 GLP5        0.0000 
     67 CA         19.3577   12.5246   10.8020 C.3       3 GLC5        0.0000 
     68 CA         18.5730   13.5110   12.0450 C.3       6 GLP5        0.0000 
     69 CA         16.6917   10.1800    8.6867 C.3       3 GLC5        0.0000 
     70 CA         18.4520   10.5240    7.6890 C.3       9 GLL5        0.0000 
     71 CA         15.3480    9.8640   10.2490 C.3       6 GLP5        0.0000 
     72 CA         19.3287   10.1645    5.0070 C.3       3 GLC5        0.0000 
     73 CA         17.6190   10.4680    6.5600 C.3       9 GLL5        0.0000 
     74 CA         20.9460    9.3880    3.9670 C.3       6 GLP5        0.0000 
     75 CA         18.9205    9.0085    7.8805 C.3       3 GLC5        0.0000 
     76 CA         19.5540    7.2710    8.6130 C.3       6 GLP5        0.0000 
     77 CA         15.7873   10.3580    6.2560 C.3       3 GLC5        0.0000 
     78 CA         13.8630    9.7750    6.4650 C.3       6 GLP5        0.0000 
     79 CA         19.9648   11.1222    4.6175 C.3       3 GLC5        0.0000 
     80 CA         18.7750   12.3540    5.6560 C.3       9 GLL5        0.0000 
     81 CA         17.0296   12.6922    7.2942 C.3       3 GLC5        0.0000 
     82 CA         16.9439   16.1381    2.5964 C.3       3 GLC5        0.0000 
     83 CA         16.6140   18.0130    3.1030 C.3       6 GLP5        0.0000 
     84 CA         20.7975   15.2713    1.8242 C.3       3 GLC5        0.0000 
@<TRIPOS>BOND
@<TRIPOS>SUBSTRUCTURE
     1 ALC1       43 GROUP        1 X    ALC  0     ROOT ALC X 1
     2 SEC2       40 GROUP        1 X    SEC  0     **** SEC X 2
     3 GLC5        1 GROUP        1 X    GLC  0     **** GLC X 6
     4 ALP1       45 GROUP        1 Y    ALP  0     ROOT ALP Y 8
     5 SEP2       42 GROUP        1 Y    SEP  0     **** SEP Y 9
     6 GLP5        3 GROUP        1 Y    GLP  0     **** GLP Y 13
     7 ALL1       44 GROUP        1 Z    ALL  0     ROOT ALL Z 15
     8 SEL2       41 GROUP        1 Z    SEL  0     **** SEL Z 16
     9 GLL5        2 GROUP        1 Z    GLL  0     **** GLL Z 20
@<TRIPOS>SET

