#    Name: 4iu7_1GM_1_ligand
#    Modification time : Tue Mar 25 04:36:45 2014

@<TRIPOS>MOLECULE
4iu7_1GM_1_ligand
   36    38     1     0     0
SMALL
NO_CHARGES


@<TRIPOS>ATOM
      1 C01        22.4790   14.7850    4.8290 C.3       1 1GM601      0.0000 
      2 C02        21.0190   15.1480    5.0890 C.3       1 1GM601      0.0000 
      3 N01        20.2040   13.9740    5.5140 N.pl3     1 1GM601      0.0000 
      4 N02        20.3890   13.4440    6.5080 N.2       1 1GM601      0.0000 
      5 C03        19.5740   12.4100    6.7410 C.ar      1 1GM601      0.0000 
      6 C04        19.4580   11.5240    7.7830 C.ar      1 1GM601      0.0000 
      7 C05        20.3130   11.5980    8.9140 C.3       1 1GM601      0.0000 
      8 F01        21.5360   11.1700    8.5770 F         1 1GM601      0.0000 
      9 F02        20.4210   12.8470    9.3880 F         1 1GM601      0.0000 
     10 F03        19.9180   10.8540    9.9670 F         1 1GM601      0.0000 
     11 C06        18.4520   10.5240    7.6890 C.ar      1 1GM601      0.0000 
     12 C07        17.6190   10.4680    6.5600 C.ar      1 1GM601      0.0000 
     13 C08        17.8040   11.4140    5.5340 C.ar      1 1GM601      0.0000 
     14 C09        18.7750   12.3540    5.6560 C.ar      1 1GM601      0.0000 
     15 C10        19.1920   13.3590    4.8800 C.2       1 1GM601      0.0000 
     16 C11        18.6720   13.6930    3.6800 C.ar      1 1GM601      0.0000 
     17 C12        17.2840   13.9620    3.6020 C.ar      1 1GM601      0.0000 
     18 C13        16.7290   14.3090    2.3530 C.ar      1 1GM601      0.0000 
     19 C14        17.5410   14.3910    1.2020 C.ar      1 1GM601      0.0000 
     20 O01        16.9890   14.7280    0.0130 O.3       1 1GM601      0.0000 
     21 C15        18.9240   14.1230    1.2810 C.ar      1 1GM601      0.0000 
     22 C16        19.4800   13.7740    2.5200 C.ar      1 1GM601      0.0000 
     23 O02        20.8070   13.5130    2.6150 O.3       1 1GM601      0.0000 
     24 H          20.5984   15.5837    4.1701 H         1 1GM601      0.0000 
     25 H          20.9858   15.9282    5.8645 H         1 1GM601      0.0000 
     26 H          18.3412    9.8491    8.4475 H         1 1GM601      0.0000 
     27 H          16.8968    9.7597    6.4835 H         1 1GM601      0.0000 
     28 H          17.1950   11.3737    4.7061 H         1 1GM601      0.0000 
     29 H          16.7032   13.9055    4.4289 H         1 1GM601      0.0000 
     30 H          15.7238   14.5040    2.2800 H         1 1GM601      0.0000 
     31 H          19.5053   14.1831    0.4497 H         1 1GM601      0.0000 
     32 H          23.0152   15.5809    4.5481 H         1 1GM601      0.0000 
     33 H          22.9188   14.4082    5.6442 H         1 1GM601      0.0000 
     34 H          22.5684   14.1010    4.1050 H         1 1GM601      0.0000 
     35 H          17.7055   15.2293   -0.4721 H         1 1GM601      0.0000 
     36 H          21.0753   13.2016    1.7034 H         1 1GM601      0.0000 
@<TRIPOS>BOND
     1    2    1 1    
     2   32    1 1    
     3   33    1 1    
     4   34    1 1    
     5    3    2 1    
     6   24    2 1    
     7   25    2 1    
     8    4    3 1    
     9   15    3 1    
    10    5    4 2    
    11    6    5 ar   
    12   14    5 ar   
    13    7    6 1    
    14   11    6 ar   
    15    8    7 1    
    16    9    7 1    
    17   10    7 1    
    18   12   11 ar   
    19   26   11 1    
    20   13   12 ar   
    21   27   12 1    
    22   14   13 ar   
    23   28   13 1    
    24   15   14 2    
    25   16   15 1    
    26   17   16 ar   
    27   22   16 ar   
    28   18   17 ar   
    29   29   17 1    
    30   19   18 ar   
    31   30   18 1    
    32   20   19 1    
    33   21   19 ar   
    34   35   20 1    
    35   22   21 ar   
    36   31   21 1    
    37   23   22 1    
    38   36   23 1    
@<TRIPOS>SUBSTRUCTURE
     1 1GM601      1 GROUP   
@<TRIPOS>SET

