#    Name: 1u1c_BAU_5_INTS_M
#    Modification time : Tue Mar 25 05:54:45 2014

@<TRIPOS>MOLECULE
1u1c_BAU_5_INTS_M
   46     0     9     0     0
SMALL
NO_CHARGES


@<TRIPOS>ATOM
      1 N         -10.6655  144.3615   49.0425 N.am      2 SEC2        0.0000 
      2 N         -10.2420  145.2160   49.9750 N.am      8 SEL2        0.0000 
      3 N         -11.0890  143.5070   48.1100 N.am      5 SEP2        0.0000 
      4 CA         -7.7320  144.4040   49.4545 C.3       3 GLC5        0.0000 
      5 CA         -9.1630  144.8090   50.7250 C.3       9 GLL5        0.0000 
      6 CA         -6.3010  143.9990   48.1840 C.3       6 GLP5        0.0000 
      7 CA         -9.8580  144.3155   48.8050 C.3       3 GLC5        0.0000 
      8 CA        -10.5530  143.8220   46.8850 C.3       6 GLP5        0.0000 
      9 N          -9.7855  147.7630   52.5265 N.am      2 SEC2        0.0000 
     10 N          -9.4370  146.3290   52.6540 N.am      8 SEL2        0.0000 
     11 N         -10.1340  149.1970   52.3990 N.am      5 SEP2        0.0000 
     12 CA         -9.3955  145.3380   55.8030 C.3       3 GLC5        0.0000 
     13 CA         -9.9370  145.9770   53.8440 C.3       9 GLL5        0.0000 
     14 CA         -8.8540  144.6990   57.7620 C.3       6 GLP5        0.0000 
     15 N         -10.7120  142.1380   55.4455 N.am      2 SEC2        0.0000 
     16 N         -10.4440  143.4890   55.2440 N.am      8 SEL2        0.0000 
     17 N         -10.9800  140.7870   55.6470 N.am      5 SEP2        0.0000 
     18 O         -12.9085  142.5740   55.5845 O.2       1 ALC1        0.0000 
     19 O         -12.7130  143.8060   55.0360 O.2       7 ALL1        0.0000 
     20 O         -13.1040  141.3420   56.1330 O.2       4 ALP1        0.0000 
     21 N         -15.8170  143.1595   54.1220 N.am      2 SEC2        0.0000 
     22 N         -14.9590  144.1300   54.8160 N.am      8 SEL2        0.0000 
     23 N         -16.6750  142.1890   53.4280 N.am      5 SEP2        0.0000 
     24 CA        -11.5760  148.2755   53.2445 C.3       3 GLC5        0.0000 
     25 CA        -12.2960  146.2080   53.6220 C.3       9 GLL5        0.0000 
     26 CA        -10.8560  150.3430   52.8670 C.3       6 GLP5        0.0000 
     27 CA        -15.6605  143.6380   47.7655 C.3       3 GLC5        0.0000 
     28 CA        -16.0630  144.8790   49.2860 C.3       9 GLL5        0.0000 
     29 CA        -15.2580  142.3970   46.2450 C.3       6 GLP5        0.0000 
     30 CA        -10.3900  143.3578   51.5403 C.3       3 GLC5        0.0000 
     31 CA         -8.9470  145.2000   52.1340 C.3       9 GLL5        0.0000 
     32 CA        -11.7250  141.7110   51.6510 C.3       6 GLP5        0.0000 
     33 CA         -8.4805  143.1198   52.2687 C.3       3 GLC5        0.0000 
     34 CA         -7.9060  141.2350   53.1080 C.3       6 GLP5        0.0000 
     35 CA        -12.6920  147.2575   55.1752 C.3       3 GLC5        0.0000 
     36 CA        -12.4240  148.5200   56.6330 C.3       6 GLP5        0.0000 
     37 CA        -12.8420  144.3330   52.6088 C.3       3 GLC5        0.0000 
     38 CA        -12.7240  142.6710   51.5000 C.3       6 GLP5        0.0000 
     39 CA        -14.9102  146.3762   55.3922 C.3       3 GLC5        0.0000 
     40 CA        -13.6240  145.7820   53.8130 C.3       9 GLL5        0.0000 
     41 CA        -15.6020  146.5710   57.3000 C.3       6 GLP5        0.0000 
     42 CA        -14.7133  148.0940   51.4442 C.3       3 GLC5        0.0000 
     43 CA        -14.8130  146.5810   53.1560 C.3       9 GLL5        0.0000 
     44 CA        -14.6810  149.9120   51.3450 C.3       6 GLP5        0.0000 
     45 CA        -17.0783  146.0228   53.4230 C.3       3 GLC5        0.0000 
     46 CA        -18.4240  146.2990   54.7410 C.3       6 GLP5        0.0000 
@<TRIPOS>BOND
@<TRIPOS>SUBSTRUCTURE
     1 ALC1       18 GROUP        1 X    ALC  0     ROOT ALC X 1
     2 SEC2        1 GROUP        1 X    SEC  0     **** SEC X 2
     3 GLC5        4 GROUP        1 X    GLC  0     **** GLC X 6
     4 ALP1       20 GROUP        1 Y    ALP  0     ROOT ALP Y 8
     5 SEP2        3 GROUP        1 Y    SEP  0     **** SEP Y 9
     6 GLP5        6 GROUP        1 Y    GLP  0     **** GLP Y 13
     7 ALL1       19 GROUP        1 Z    ALL  0     ROOT ALL Z 15
     8 SEL2        2 GROUP        1 Z    SEL  0     **** SEL Z 16
     9 GLL5        5 GROUP        1 Z    GLL  0     **** GLL Z 20
@<TRIPOS>SET

