#    Name: 1u1c_BAU_5_ligand
#    Modification time : Tue Mar 25 05:54:45 2014

@<TRIPOS>MOLECULE
1u1c_BAU_5_ligand
   36    37     1     0     0
SMALL
NO_CHARGES


@<TRIPOS>ATOM
      1 OAC       -10.2420  145.2160   49.9750 O.3       1 BAU5041     0.0000 
      2 CAJ        -9.1630  144.8090   50.7250 C.3       1 BAU5041     0.0000 
      3 CAK        -8.9470  145.2000   52.1340 C.3       1 BAU5041     0.0000 
      4 OAO        -9.4370  146.3290   52.6540 O.3       1 BAU5041     0.0000 
      5 CAM        -9.9370  145.9770   53.8440 C.3       1 BAU5041     0.0000 
      6 NAT       -11.1620  145.4620   54.1090 N.am      1 BAU5041     0.0000 
      7 CAS       -11.3680  144.2180   54.8370 C.2       1 BAU5041     0.0000 
      8 OAB       -10.4440  143.4890   55.2440 O.2       1 BAU5041     0.0000 
      9 NAN       -12.7130  143.8060   55.0360 N.am      1 BAU5041     0.0000 
     10 CAR       -13.8210  144.5560   54.5520 C.2       1 BAU5041     0.0000 
     11 OAA       -14.9590  144.1300   54.8160 O.2       1 BAU5041     0.0000 
     12 CAI       -12.2960  146.2080   53.6220 C.2       1 BAU5041     0.0000 
     13 CAQ       -13.6240  145.7820   53.8130 C.2       1 BAU5041     0.0000 
     14 CAL       -14.8130  146.5810   53.1560 C.3       1 BAU5041     0.0000 
     15 CG        -15.2450  146.0090   51.8040 C.ar      1 BAU5041     0.0000 
     16 CD2       -14.4620  146.2570   50.6070 C.ar      1 BAU5041     0.0000 
     17 CE2       -14.8700  145.6900   49.3420 C.ar      1 BAU5041     0.0000 
     18 CZ        -16.0630  144.8790   49.2860 C.ar      1 BAU5041     0.0000 
     19 CE1       -16.8360  144.6380   50.4780 C.ar      1 BAU5041     0.0000 
     20 CD1       -16.4360  145.1980   51.7300 C.ar      1 BAU5041     0.0000 
     21 H          -8.1697  145.0668   50.1634 H         1 BAU5041     0.0000 
     22 H          -9.0785  143.6426   50.6979 H         1 BAU5041     0.0000 
     23 H          -7.7920  145.1295   52.3046 H         1 BAU5041     0.0000 
     24 H          -9.2721  144.2731   52.7692 H         1 BAU5041     0.0000 
     25 H          -9.7722  146.9015   54.5977 H         1 BAU5041     0.0000 
     26 H          -9.1302  145.2639   54.3831 H         1 BAU5041     0.0000 
     27 H         -12.8947  142.9270   55.5526 H         1 BAU5041     0.0000 
     28 H         -12.1109  147.0911   53.1128 H         1 BAU5041     0.0000 
     29 H         -14.4934  147.6190   53.0326 H         1 BAU5041     0.0000 
     30 H         -15.6562  146.5619   53.8514 H         1 BAU5041     0.0000 
     31 H         -13.6303  146.8278   50.6615 H         1 BAU5041     0.0000 
     32 H         -14.3297  145.8585   48.5121 H         1 BAU5041     0.0000 
     33 H         -16.3574  144.4776   48.4032 H         1 BAU5041     0.0000 
     34 H         -17.6739  144.0627   50.4219 H         1 BAU5041     0.0000 
     35 H         -16.9816  145.0302   52.5651 H         1 BAU5041     0.0000 
     36 H         -10.1895  146.2146   49.9668 H         1 BAU5041     0.0000 
@<TRIPOS>BOND
     1    2    1 1    
     2   36    1 1    
     3    3    2 1    
     4   21    2 1    
     5   22    2 1    
     6    4    3 1    
     7   23    3 1    
     8   24    3 1    
     9    5    4 1    
    10    6    5 1    
    11   25    5 1    
    12   26    5 1    
    13    7    6 1    
    14   12    6 1    
    15    8    7 2    
    16    9    7 1    
    17   10    9 1    
    18   27    9 1    
    19   11   10 2    
    20   13   10 1    
    21   13   12 2    
    22   28   12 1    
    23   14   13 1    
    24   15   14 1    
    25   29   14 1    
    26   30   14 1    
    27   16   15 ar   
    28   20   15 ar   
    29   17   16 ar   
    30   31   16 1    
    31   18   17 ar   
    32   32   17 1    
    33   19   18 ar   
    34   33   18 1    
    35   20   19 ar   
    36   34   19 1    
    37   35   20 1    
@<TRIPOS>SUBSTRUCTURE
     1 BAU5041     1 GROUP   
@<TRIPOS>SET

