#    Name: 1nm6_L86_1_INTS_M
#    Modification time : Mon Mar 24 18:27:19 2014

@<TRIPOS>MOLECULE
1nm6_L86_1_INTS_M
   71     0     9     0     0
SMALL
NO_CHARGES


@<TRIPOS>ATOM
      1 CA         19.7435  -17.0365   27.3580 C.3       3 GLC5        0.0000 
      2 CA         18.6660  -17.0280   25.5720 C.3       9 GLL5        0.0000 
      3 CA         20.8210  -17.0450   29.1440 C.3       6 GLP5        0.0000 
      4 CA         16.9805  -17.3270   26.6610 C.3       3 GLC5        0.0000 
      5 CA         15.2950  -17.6260   27.7500 C.3       6 GLP5        0.0000 
      6 O          16.1675  -15.8020   24.0875 O.2       1 ALC1        0.0000 
      7 O          17.4830  -16.1590   23.5540 O.2       7 ALL1        0.0000 
      8 O          14.8520  -15.4450   24.6210 O.2       4 ALP1        0.0000 
      9 N          15.7275  -13.2535   23.7150 N.am      2 SEC2        0.0000 
     10 N          16.5820  -13.7110   22.5080 N.am      8 SEL2        0.0000 
     11 N          14.8730  -12.7960   24.9220 N.am      5 SEP2        0.0000 
     12 CA         19.9385  -11.4450   18.7300 C.3       3 GLC5        0.0000 
     13 CA         20.5490  -12.9380   19.4210 C.3       9 GLL5        0.0000 
     14 CA         19.3280   -9.9520   18.0390 C.3       6 GLP5        0.0000 
     15 CA         21.8545  -14.1470   18.9915 C.3       3 GLC5        0.0000 
     16 CA         23.1600  -15.3560   18.5620 C.3       6 GLP5        0.0000 
     17 CA         19.6850  -14.0135   18.1515 C.3       3 GLC5        0.0000 
     18 CA         18.8210  -15.0890   16.8820 C.3       6 GLP5        0.0000 
     19 CA         18.5750  -11.0530   19.3290 C.3       3 GLC5        0.0000 
     20 CA         17.8220  -12.1540   20.6190 C.3       9 GLL5        0.0000 
     21 CA         19.2745  -11.4695   21.6420 C.3       3 GLC5        0.0000 
     22 CA         20.7270  -10.7850   22.6650 C.3       6 GLP5        0.0000 
     23 CA         17.6785  -11.8160   22.6375 C.3       3 GLC5        0.0000 
     24 CA         17.5350  -11.4780   24.6560 C.3       6 GLP5        0.0000 
     25 O          16.2655  -10.3895   21.2310 O.2       1 ALC1        0.0000 
     26 O          15.5600  -11.3670   20.3840 O.2       7 ALL1        0.0000 
     27 O          16.9710   -9.4120   22.0780 O.2       4 ALP1        0.0000 
     28 CA         14.7830   -9.8260   18.8780 C.3       3 GLC5        0.0000 
     29 CA         14.1190  -11.5080   20.0730 C.3       9 GLL5        0.0000 
     30 CA         15.4470   -8.1440   17.6830 C.3       6 GLP5        0.0000 
     31 CA         10.1080  -13.8860   21.8470 C.3       3 GLC5        0.0000 
     32 CA         11.5260  -12.6240   22.7980 C.3       9 GLL5        0.0000 
     33 CA          8.6900  -15.1480   20.8960 C.3       6 GLP5        0.0000 
     34 CA         11.3045  -10.6815   25.6235 C.3       3 GLC5        0.0000 
     35 CA         11.4830  -11.4190   23.6050 C.3       9 GLL5        0.0000 
     36 CA         11.1260   -9.9440   27.6420 C.3       6 GLP5        0.0000 
     37 CA         11.8665  -13.4205   18.7660 C.3       3 GLC5        0.0000 
     38 CA         12.4100  -13.8930   20.7730 C.3       9 GLL5        0.0000 
     39 CA         11.3230  -12.9480   16.7590 C.3       6 GLP5        0.0000 
     40 CA         10.5500  -14.5205   20.8345 C.3       3 GLC5        0.0000 
     41 CA         16.1680  -18.0390   25.9825 C.3       3 GLC5        0.0000 
     42 CA         17.0410  -18.4520   24.2150 C.3       9 GLL5        0.0000 
     43 CA         16.7180  -16.2955   19.1255 C.3       3 GLC5        0.0000 
     44 CA         14.9430  -16.6860   20.2790 C.3       9 GLL5        0.0000 
     45 CA         18.4930  -15.9050   17.9720 C.3       6 GLP5        0.0000 
     46 CA         18.9210  -12.8580   25.1825 C.3       3 GLC5        0.0000 
     47 CA         19.7500  -14.6900   25.8430 C.3       9 GLL5        0.0000 
     48 CA         20.6392  -16.5321   27.2102 C.3       3 GLC5        0.0000 
     49 CA         19.8720  -16.0970   25.4690 C.3       9 GLL5        0.0000 
     50 CA         22.7908  -13.2635   26.3735 C.3       3 GLC5        0.0000 
     51 CA         20.8640  -13.7860   25.5750 C.3       9 GLL5        0.0000 
     52 CA         24.1130  -12.4700   27.4830 C.3       6 GLP5        0.0000 
     53 CA         21.7797  -12.5070   24.3045 C.3       3 GLC5        0.0000 
     54 CA         22.0730  -14.3280   24.9530 C.3       9 GLL5        0.0000 
     55 CA         22.0910  -10.9570   23.3450 C.3       6 GLP5        0.0000 
     56 CA         20.4265  -12.0730   21.3415 C.3       3 GLC5        0.0000 
     57 CA         19.7030  -13.7840   20.6150 C.3       9 GLL5        0.0000 
     58 CA         12.9325  -13.0780   23.9633 C.3       3 GLC5        0.0000 
     59 CA         12.3980  -12.6360   21.6430 C.3       9 GLL5        0.0000 
     60 CA         13.9030  -13.5260   25.7060 C.3       6 GLP5        0.0000 
     61 CA         12.8978  -12.1845   24.5733 C.3       3 GLC5        0.0000 
     62 CA         12.3020  -10.2670   23.2760 C.3       9 GLL5        0.0000 
     63 CA         10.8721   -9.4303   22.4036 C.3       3 GLC5        0.0000 
     64 CA          9.2050   -8.2960   22.0220 C.3       6 GLP5        0.0000 
     65 CA         12.6005   -8.5772   22.0575 C.3       3 GLC5        0.0000 
     66 CA         12.4570   -6.8780   21.4120 C.3       6 GLP5        0.0000 
     67 CA         10.6165  -12.6532   20.5904 C.3       3 GLC5        0.0000 
     68 CA          9.0470  -12.0450   19.6840 C.3       6 GLP5        0.0000 
     69 CA         14.4465  -10.7308   23.3639 C.3       3 GLC5        0.0000 
     70 CA         13.2220  -11.4900   21.3090 C.3       9 GLL5        0.0000 
     71 CA         16.1400  -10.8840   24.2300 C.3       6 GLP5        0.0000 
@<TRIPOS>BOND
@<TRIPOS>SUBSTRUCTURE
     1 ALC1        6 GROUP        1 X    ALC  0     ROOT ALC X 1
     2 SEC2        9 GROUP        1 X    SEC  0     **** SEC X 2
     3 GLC5        1 GROUP        1 X    GLC  0     **** GLC X 6
     4 ALP1        8 GROUP        1 Y    ALP  0     ROOT ALP Y 8
     5 SEP2       11 GROUP        1 Y    SEP  0     **** SEP Y 9
     6 GLP5        3 GROUP        1 Y    GLP  0     **** GLP Y 13
     7 ALL1        7 GROUP        1 Z    ALL  0     ROOT ALL Z 15
     8 SEL2       10 GROUP        1 Z    SEL  0     **** SEL Z 16
     9 GLL5        2 GROUP        1 Z    GLL  0     **** GLL Z 20
@<TRIPOS>SET

