#    Name: 1nm6_L86_1_ligand
#    Modification time : Mon Mar 24 18:27:19 2014

@<TRIPOS>MOLECULE
1nm6_L86_1_ligand
   67    70     1     0     0
SMALL
NO_CHARGES


@<TRIPOS>ATOM
      1 C8         19.7500  -14.6900   25.8430 C.ar      1 L86247      0.0000 
      2 C2         19.8720  -16.0970   25.4690 C.ar      1 L86247      0.0000 
      3 C10        21.1040  -16.6450   24.8970 C.ar      1 L86247      0.0000 
      4 C4         22.2150  -15.7450   24.6160 C.ar      1 L86247      0.0000 
      5 C5         22.0730  -14.3280   24.9530 C.ar      1 L86247      0.0000 
      6 C6         20.8640  -13.7860   25.5750 C.ar      1 L86247      0.0000 
      7 C11        18.6660  -17.0280   25.5720 C.3       1 L86247      0.0000 
      8 C1         18.1190  -17.3620   24.1480 C.3       1 L86247      0.0000 
      9 N18        17.4830  -16.1590   23.5540 N.pl3     1 L86247      0.0000 
     10 C21        18.1680  -15.4220   22.5500 C.2       1 L86247      0.0000 
     11 C22        17.6550  -14.1290   22.0720 C.2       1 L86247      0.0000 
     12 N23        18.4010  -13.4040   21.1440 N.am      1 L86247      0.0000 
     13 C24        19.7030  -13.7840   20.6150 C.2       1 L86247      0.0000 
     14 C25        20.1550  -15.0150   21.1180 C.2       1 L86247      0.0000 
     15 N3         19.4310  -15.7840   22.0220 N.2       1 L86247      0.0000 
     16 O28        16.5820  -13.7110   22.5080 O.2       1 L86247      0.0000 
     17 CL2        20.5490  -12.9380   19.4210 Cl        1 L86247      0.0000 
     18 C33        17.8220  -12.1540   20.6190 C.3       1 L86247      0.0000 
     19 C34        16.4000  -12.3880   20.1360 C.2       1 L86247      0.0000 
     20 N37        15.5600  -11.3670   20.3840 N.am      1 L86247      0.0000 
     21 O38        16.1010  -13.4250   19.5430 O.2       1 L86247      0.0000 
     22 C39        14.1190  -11.5080   20.0730 C.3       1 L86247      0.0000 
     23 C40        13.2220  -11.4900   21.3090 C.ar      1 L86247      0.0000 
     24 C43        12.3980  -12.6360   21.6430 C.ar      1 L86247      0.0000 
     25 C44        11.5260  -12.6240   22.7980 C.ar      1 L86247      0.0000 
     26 C45        11.4830  -11.4190   23.6050 C.ar      1 L86247      0.0000 
     27 C15        13.1860  -10.2860   22.1300 C.ar      1 L86247      0.0000 
     28 C9         12.4100  -13.8930   20.7730 C.3       1 L86247      0.0000 
     29 C50        12.3020  -10.2670   23.2760 C.ar      1 L86247      0.0000 
     30 C3         13.6320  -14.7580   21.1300 C.3       1 L86247      0.0000 
     31 C7         17.0410  -18.4520   24.2150 C.3       1 L86247      0.0000 
     32 N2         16.6590  -19.0130   22.8870 N.4       1 L86247      0.0000 
     33 N5         13.6570  -15.9310   20.2380 N.4       1 L86247      0.0000 
     34 C12        14.9430  -16.6860   20.2790 C.3       1 L86247      0.0000 
     35 C13        15.1150  -17.4590   21.6010 C.3       1 L86247      0.0000 
     36 C14        16.4310  -18.2960   21.6030 C.3       1 L86247      0.0000 
     37 H          18.9162  -14.3524   26.2757 H         1 L86247      0.0000 
     38 H          21.1781  -17.6211   24.7037 H         1 L86247      0.0000 
     39 H          23.0546  -16.0843   24.2033 H         1 L86247      0.0000 
     40 H          22.8469  -13.6930   24.7464 H         1 L86247      0.0000 
     41 H          20.8047  -12.8213   25.8095 H         1 L86247      0.0000 
     42 H          17.8781  -16.5485   26.1388 H         1 L86247      0.0000 
     43 H          18.9552  -17.9530   26.0545 H         1 L86247      0.0000 
     44 H          18.9195  -17.6996   23.5374 H         1 L86247      0.0000 
     45 H          16.5701  -15.8895   23.8798 H         1 L86247      0.0000 
     46 H          21.0884  -15.3675   20.7909 H         1 L86247      0.0000 
     47 H          18.4181  -11.7785   19.7817 H         1 L86247      0.0000 
     48 H          17.8047  -11.3843   21.3967 H         1 L86247      0.0000 
     49 H          15.8548  -10.4749   20.7836 H         1 L86247      0.0000 
     50 H          13.9393  -12.4543   19.5293 H         1 L86247      0.0000 
     51 H          13.7951  -10.6930   19.3990 H         1 L86247      0.0000 
     52 H          10.9731  -13.4158   23.0326 H         1 L86247      0.0000 
     53 H          10.8693  -11.3809   24.4140 H         1 L86247      0.0000 
     54 H          13.7546   -9.5021   21.9051 H         1 L86247      0.0000 
     55 H          12.4683  -13.6105   19.7297 H         1 L86247      0.0000 
     56 H          11.5076  -14.4641   20.9497 H         1 L86247      0.0000 
     57 H          12.2531   -9.4370   23.8588 H         1 L86247      0.0000 
     58 H          13.5436  -15.0615   22.1678 H         1 L86247      0.0000 
     59 H          14.5252  -14.1553   21.0036 H         1 L86247      0.0000 
     60 H          16.1500  -18.0255   24.7131 H         1 L86247      0.0000 
     61 H          17.4097  -19.2615   24.8729 H         1 L86247      0.0000 
     62 H          15.7897  -15.9981   20.1709 H         1 L86247      0.0000 
     63 H          14.9866  -17.4050   19.4527 H         1 L86247      0.0000 
     64 H          14.2742  -18.1331   21.7368 H         1 L86247      0.0000 
     65 H          15.1490  -16.7559   22.4283 H         1 L86247      0.0000 
     66 H          16.3735  -19.0094   20.7691 H         1 L86247      0.0000 
     67 H          17.2629  -17.6094   21.3929 H         1 L86247      0.0000 
@<TRIPOS>BOND
     1    2    1 ar   
     2    6    1 ar   
     3   37    1 1    
     4    3    2 ar   
     5    7    2 1    
     6    4    3 ar   
     7   38    3 1    
     8    5    4 ar   
     9   39    4 1    
    10    6    5 ar   
    11   40    5 1    
    12   41    6 1    
    13    8    7 1    
    14   42    7 1    
    15   43    7 1    
    16    9    8 1    
    17   31    8 1    
    18   44    8 1    
    19   10    9 1    
    20   45    9 1    
    21   11   10 1    
    22   15   10 2    
    23   12   11 am   
    24   16   11 2    
    25   13   12 1    
    26   18   12 1    
    27   14   13 2    
    28   17   13 1    
    29   15   14 1    
    30   46   14 1    
    31   19   18 1    
    32   47   18 1    
    33   48   18 1    
    34   20   19 am   
    35   21   19 2    
    36   22   20 1    
    37   49   20 1    
    38   23   22 1    
    39   50   22 1    
    40   51   22 1    
    41   24   23 ar   
    42   27   23 ar   
    43   25   24 ar   
    44   28   24 1    
    45   26   25 ar   
    46   52   25 1    
    47   29   26 ar   
    48   53   26 1    
    49   29   27 ar   
    50   54   27 1    
    51   30   28 1    
    52   55   28 1    
    53   56   28 1    
    54   57   29 1    
    55   33   30 1    
    56   58   30 1    
    57   59   30 1    
    58   32   31 1    
    59   60   31 1    
    60   61   31 1    
    61   36   32 1    
    62   34   33 1    
    63   35   34 1    
    64   62   34 1    
    65   63   34 1    
    66   36   35 1    
    67   64   35 1    
    68   65   35 1    
    69   66   36 1    
    70   67   36 1    
@<TRIPOS>SUBSTRUCTURE
     1 L86247      1 GROUP   
@<TRIPOS>SET

