#    Name: 3qp8_HL0_3_INTS_M
#    Modification time : Mon Apr  7 19:46:17 2014

@<TRIPOS>MOLECULE
3qp8_HL0_3_INTS_M
   69     0     9     0     0
SMALL
NO_CHARGES


@<TRIPOS>ATOM
      1 O         -16.8480   45.4965    2.0685 O.2       1 ALC1        0.0000 
      2 O         -16.3790   44.2280    1.7480 O.2       7 ALL1        0.0000 
      3 O         -17.3170   46.7650    2.3890 O.2       4 ALP1        0.0000 
      4 CA         -8.2020   49.0410   -2.3120 C.3       3 GLC5        0.0000 
      5 CA         -9.9860   49.4010   -2.8620 C.3       9 GLL5        0.0000 
      6 CA         -6.4180   48.6810   -1.7620 C.3       6 GLP5        0.0000 
      7 N         -14.4265   42.0430    0.4900 N.am      2 SEC2        0.0000 
      8 N         -14.6030   42.8540    1.5390 N.am      8 SEL2        0.0000 
      9 N         -14.2500   41.2320   -0.5590 N.am      5 SEP2        0.0000 
     10 N         -13.7290   42.0370    2.3395 N.am      2 SEC2        0.0000 
     11 N         -12.8550   41.2200    3.1400 N.am      5 SEP2        0.0000 
     12 CA        -10.1790   46.0935   -2.8850 C.3       3 GLC5        0.0000 
     13 CA        -10.6810   48.0880   -2.5790 C.3       9 GLL5        0.0000 
     14 CA         -9.6770   44.0990   -3.1910 C.3       6 GLP5        0.0000 
     15 CA         -8.7335   47.3775   -2.8940 C.3       3 GLC5        0.0000 
     16 CA         -6.7860   46.6670   -3.2090 C.3       6 GLP5        0.0000 
     17 CA        -11.3760   49.4580   -0.4510 C.3       3 GLC5        0.0000 
     18 CA        -12.1360   48.3610   -2.2330 C.3       9 GLL5        0.0000 
     19 CA        -10.6160   50.5550    1.3310 C.3       6 GLP5        0.0000 
     20 N         -17.0060   44.4035   -2.5280 N.am      2 SEC2        0.0000 
     21 N         -16.6180   44.1500   -1.1220 N.am      8 SEL2        0.0000 
     22 N         -17.3940   44.6570   -3.9340 N.am      5 SEP2        0.0000 
     23 CA        -10.9980   45.2650   -1.9115 C.3       3 GLC5        0.0000 
     24 CA        -12.3190   46.4310   -0.6320 C.3       9 GLL5        0.0000 
     25 CA        -10.3300   46.0600    0.2070 C.3       3 GLC5        0.0000 
     26 CA         -8.3410   45.6890    1.0460 C.3       6 GLP5        0.0000 
     27 CA        -14.7095   47.4945    0.1915 C.3       3 GLC5        0.0000 
     28 CA        -13.4160   46.0320    0.3250 C.3       9 GLL5        0.0000 
     29 CA        -16.0030   48.9570    0.0580 C.3       6 GLP5        0.0000 
     30 CA        -11.6650   43.7940    0.4145 C.3       3 GLC5        0.0000 
     31 CA        -12.7660   45.3740    1.5270 C.3       9 GLL5        0.0000 
     32 CA        -10.5640   42.2140   -0.6980 C.3       6 GLP5        0.0000 
     33 CA        -10.5535   45.5315    1.2865 C.3       3 GLC5        0.0000 
     34 CA        -17.0645   41.4720    0.8555 C.3       3 GLC5        0.0000 
     35 CA        -17.2360   43.3050    1.0500 C.3       9 GLL5        0.0000 
     36 CA        -16.8930   39.6390    0.6610 C.3       6 GLP5        0.0000 
     37 CA        -18.9010   41.2845    1.6065 C.3       3 GLC5        0.0000 
     38 CA        -18.6610   43.1950    1.6110 C.3       9 GLL5        0.0000 
     39 CA        -19.1410   39.3740    1.6020 C.3       6 GLP5        0.0000 
     40 CA        -18.9305   41.2575    0.4440 C.3       3 GLC5        0.0000 
     41 CA        -19.5780   43.0260    0.3940 C.3       9 GLL5        0.0000 
     42 CA        -18.2830   39.4890    0.4940 C.3       6 GLP5        0.0000 
     43 CA        -21.1530   43.3825   -0.6020 C.3       3 GLC5        0.0000 
     44 CA        -22.7280   43.7390   -1.5980 C.3       6 GLP5        0.0000 
     45 CA        -19.8170   42.1010   -1.4035 C.3       3 GLC5        0.0000 
     46 CA        -20.0560   41.1760   -3.2010 C.3       6 GLP5        0.0000 
     47 CA         -9.6352   49.6073   -1.0008 C.3       3 GLC5        0.0000 
     48 CA         -8.9370   50.4700    0.7190 C.3       6 GLP5        0.0000 
     49 CA        -13.9455   48.9492   -1.9803 C.3       3 GLC5        0.0000 
     50 CA        -15.3730   50.1710   -1.9070 C.3       6 GLP5        0.0000 
     51 CA        -11.9766   46.8866   -3.9025 C.3       3 GLC5        0.0000 
     52 CA        -12.9000   47.0940   -1.8740 C.3       9 GLL5        0.0000 
     53 CA        -11.7990   46.1140   -5.6650 C.3       6 GLP5        0.0000 
     54 CA        -13.4244   44.5641   -1.4345 C.3       3 GLC5        0.0000 
     55 CA        -13.8360   42.7310   -2.4050 C.3       6 GLP5        0.0000 
     56 CA        -13.0457   47.0955    3.2147 C.3       3 GLC5        0.0000 
     57 CA        -12.8880   48.6360    4.3190 C.3       6 GLP5        0.0000 
     58 CA        -14.9040   44.2197    4.3035 C.3       3 GLC5        0.0000 
     59 CA        -13.6410   45.7360    2.6940 C.3       9 GLL5        0.0000 
     60 CA        -15.7630   43.2880    5.6900 C.3       6 GLP5        0.0000 
     61 CA        -12.2951   44.9320    3.6211 C.3       3 GLC5        0.0000 
     62 CA        -14.4490   44.5670    3.1400 C.3       9 GLL5        0.0000 
     63 CA        -10.7640   44.8030    4.6170 C.3       6 GLP5        0.0000 
     64 CA        -18.0953   43.2605    3.3272 C.3       3 GLC5        0.0000 
     65 CA        -18.2420   43.2710    5.3240 C.3       6 GLP5        0.0000 
     66 CA        -20.5252   42.8778    2.1242 C.3       3 GLC5        0.0000 
     67 CA        -21.9310   42.6450    3.2460 C.3       6 GLP5        0.0000 
     68 CA        -19.7557   44.8552    0.8043 C.3       3 GLC5        0.0000 
     69 CA        -20.3920   46.6000    0.6060 C.3       6 GLP5        0.0000 
@<TRIPOS>BOND
@<TRIPOS>SUBSTRUCTURE
     1 ALC1        1 GROUP        1 X    ALC  0     ROOT ALC X 1
     2 SEC2        7 GROUP        1 X    SEC  0     **** SEC X 2
     3 GLC5        4 GROUP        1 X    GLC  0     **** GLC X 6
     4 ALP1        3 GROUP        1 Y    ALP  0     ROOT ALP Y 8
     5 SEP2        9 GROUP        1 Y    SEP  0     **** SEP Y 9
     6 GLP5        6 GROUP        1 Y    GLP  0     **** GLP Y 13
     7 ALL1        2 GROUP        1 Z    ALL  0     ROOT ALL Z 15
     8 SEL2        8 GROUP        1 Z    SEL  0     **** SEL Z 16
     9 GLL5        5 GROUP        1 Z    GLL  0     **** GLL Z 20
@<TRIPOS>SET

