#    Name: 3qp8_HL0_3_ligand
#    Modification time : Mon Apr  7 19:46:17 2014

@<TRIPOS>MOLECULE
3qp8_HL0_3_ligand
   43    43     1     0     0
SMALL
NO_CHARGES


@<TRIPOS>ATOM
      1 N         -16.3790   44.2280    1.7480 N.am      1 HL03        0.0000 
      2 C1         -9.9860   49.4010   -2.8620 C.3       1 HL03        0.0000 
      3 O1        -14.6030   42.8540    1.5390 O.2       1 HL03        0.0000 
      4 C2        -10.6810   48.0880   -2.5790 C.3       1 HL03        0.0000 
      5 O2        -18.8250   43.4970   -0.7280 O.3       1 HL03        0.0000 
      6 C3        -12.1360   48.3610   -2.2330 C.3       1 HL03        0.0000 
      7 O3        -16.6180   44.1500   -1.1220 O.2       1 HL03        0.0000 
      8 C4        -12.9000   47.0940   -1.8740 C.3       1 HL03        0.0000 
      9 C5        -12.3190   46.4310   -0.6320 C.3       1 HL03        0.0000 
     10 C6        -13.4160   46.0320    0.3250 C.3       1 HL03        0.0000 
     11 C7        -12.7660   45.3740    1.5270 C.3       1 HL03        0.0000 
     12 C8        -13.6410   45.7360    2.6940 C.3       1 HL03        0.0000 
     13 C9        -14.4490   44.5670    3.1400 C.3       1 HL03        0.0000 
     14 C10       -15.1470   43.8260    2.0380 C.2       1 HL03        0.0000 
     15 C11       -17.2360   43.3050    1.0500 C.3       1 HL03        0.0000 
     16 C12       -18.6610   43.1950    1.6110 C.3       1 HL03        0.0000 
     17 C13       -19.5780   43.0260    0.3940 C.3       1 HL03        0.0000 
     18 C14       -17.4590   43.6970   -0.3610 C.2       1 HL03        0.0000 
     19 H         -16.7530   45.1414    1.9865 H         1 HL03        0.0000 
     20 H         -10.1997   47.5927   -1.7436 H         1 HL03        0.0000 
     21 H         -10.6332   47.4530   -3.4561 H         1 HL03        0.0000 
     22 H         -12.6252   48.8448   -3.0885 H         1 HL03        0.0000 
     23 H         -12.1804   49.0588   -1.3866 H         1 HL03        0.0000 
     24 H         -12.8517   46.3947   -2.7111 H         1 HL03        0.0000 
     25 H         -13.9471   47.3441   -1.6919 H         1 HL03        0.0000 
     26 H         -11.6392   47.1285   -0.1401 H         1 HL03        0.0000 
     27 H         -11.7538   45.5468   -0.9309 H         1 HL03        0.0000 
     28 H         -14.0821   45.3305   -0.1539 H         1 HL03        0.0000 
     29 H         -13.9601   46.9081    0.6437 H         1 HL03        0.0000 
     30 H         -11.7826   45.7711    1.6659 H         1 HL03        0.0000 
     31 H         -12.7515   44.3131    1.3916 H         1 HL03        0.0000 
     32 H         -14.3068   46.5581    2.4047 H         1 HL03        0.0000 
     33 H         -13.0126   46.0893    3.5205 H         1 HL03        0.0000 
     34 H         -15.2074   44.9064    3.8811 H         1 HL03        0.0000 
     35 H         -13.7929   43.8562    3.6913 H         1 HL03        0.0000 
     36 H         -16.8286   42.2930    1.0456 H         1 HL03        0.0000 
     37 H         -18.9121   44.0939    2.1277 H         1 HL03        0.0000 
     38 H         -18.7332   42.3344    2.2372 H         1 HL03        0.0000 
     39 H         -19.8281   41.9798    0.3071 H         1 HL03        0.0000 
     40 H         -20.4682   43.6122    0.5627 H         1 HL03        0.0000 
     41 H          -9.0226   49.2686   -3.0952 H         1 HL03        0.0000 
     42 H         -10.4085   49.8876   -3.6267 H         1 HL03        0.0000 
     43 H         -10.0149   50.0142   -2.0726 H         1 HL03        0.0000 
@<TRIPOS>BOND
     1   14    1 am   
     2   15    1 1    
     3   19    1 1    
     4    4    2 1    
     5   41    2 1    
     6   42    2 1    
     7   43    2 1    
     8   14    3 2    
     9    6    4 1    
    10   20    4 1    
    11   21    4 1    
    12   17    5 1    
    13   18    5 1    
    14    8    6 1    
    15   22    6 1    
    16   23    6 1    
    17   18    7 2    
    18    9    8 1    
    19   24    8 1    
    20   25    8 1    
    21   10    9 1    
    22   26    9 1    
    23   27    9 1    
    24   11   10 1    
    25   28   10 1    
    26   29   10 1    
    27   12   11 1    
    28   30   11 1    
    29   31   11 1    
    30   13   12 1    
    31   32   12 1    
    32   33   12 1    
    33   14   13 1    
    34   34   13 1    
    35   35   13 1    
    36   16   15 1    
    37   18   15 1    
    38   36   15 1    
    39   17   16 1    
    40   37   16 1    
    41   38   16 1    
    42   39   17 1    
    43   40   17 1    
@<TRIPOS>SUBSTRUCTURE
     1 HL03        1 GROUP   
@<TRIPOS>SET

