#    Name: 3swr_SFG_1_INTS_M
#    Modification time : Mon Mar 24 18:41:07 2014

@<TRIPOS>MOLECULE
3swr_SFG_1_INTS_M
   62     0    12     0     0
SMALL
NO_CHARGES


@<TRIPOS>ATOM
      1 OD1       -10.1195   -3.0225   28.6280 O.co2     3 ASC3        0.0000 
      2 OD1        -8.8670   -3.5670   28.1190 O.co2    11 ASL3        0.0000 
      3 OD1       -11.3720   -2.4780   29.1370 O.co2     7 ASP3        0.0000 
      4 O         -10.1195   -3.0225   28.6280 O.2       1 ALC1        0.0000 
      5 O          -8.8670   -3.5670   28.1190 O.2       9 ALL1        0.0000 
      6 O         -11.3720   -2.4780   29.1370 O.2       5 ALP1        0.0000 
      7 O          -8.0870   -2.2435   27.6230 O.2       1 ALC1        0.0000 
      8 O          -7.3070   -0.9200   27.1270 O.2       5 ALP1        0.0000 
      9 N          -8.3605   -6.2190   25.6260 N.am      2 SEC2        0.0000 
     10 N          -8.3780   -6.0360   27.0490 N.am     10 SEL2        0.0000 
     11 N          -8.3430   -6.4020   24.2030 N.am      6 SEP2        0.0000 
     12 N          -9.4865   -6.7965   27.5260 N.am      2 SEC2        0.0000 
     13 N         -10.5950   -7.5570   28.0030 N.am      6 SEP2        0.0000 
     14 N          -5.1670   -6.9620   27.5380 N.am      2 SEC2        0.0000 
     15 N          -6.6280   -6.5530   28.3780 N.am     10 SEL2        0.0000 
     16 N          -3.7060   -7.3710   26.6980 N.am      6 SEP2        0.0000 
     17 N          -6.4530   -7.3505   26.9080 N.am      2 SEC2        0.0000 
     18 N          -6.2780   -8.1480   25.4380 N.am      6 SEP2        0.0000 
     19 CA         -7.8400   -5.3675   33.3935 C.3       4 GLC5        0.0000 
     20 CA         -7.5700   -3.4480   32.6720 C.3      12 GLL5        0.0000 
     21 CA         -8.1100   -7.2870   34.1150 C.3       8 GLP5        0.0000 
     22 CA         -7.3415   -0.4800   34.5905 C.3       4 GLC5        0.0000 
     23 CA         -6.9930   -2.1390   33.2590 C.3      12 GLL5        0.0000 
     24 CA         -7.6900    1.1790   35.9220 C.3       8 GLP5        0.0000 
     25 O          -3.0585   -3.2200   32.6395 O.2       1 ALC1        0.0000 
     26 O          -3.8820   -3.9590   33.4450 O.2       9 ALL1        0.0000 
     27 O          -2.2350   -2.4810   31.8340 O.2       5 ALP1        0.0000 
     28 O          -1.9545   -2.8405   34.7000 O.2       1 ALC1        0.0000 
     29 O          -2.8020   -2.7340   35.7410 O.2       9 ALL1        0.0000 
     30 O          -1.1070   -2.9470   33.6590 O.2       5 ALP1        0.0000 
     31 CA         -3.9725   -0.1460   32.3090 C.3       4 GLC5        0.0000 
     32 CA         -3.6380   -0.8520   34.3640 C.3      12 GLL5        0.0000 
     33 CA         -4.3070    0.5600   30.2540 C.3       8 GLP5        0.0000 
     34 CA         -0.0710    4.6150   35.0740 C.3       4 GLC5        0.0000 
     35 CA         -2.0130    3.5860   35.2830 C.3      12 GLL5        0.0000 
     36 CA          1.8710    5.6440   34.8650 C.3       8 GLP5        0.0000 
     37 N          -0.4200    4.9145   33.5510 N.am      2 SEC2        0.0000 
     38 N          -1.2680    3.6000   34.1270 N.am     10 SEL2        0.0000 
     39 N           0.4280    6.2290   32.9750 N.am      6 SEP2        0.0000 
     40 CA         -0.2705    3.0595   31.5550 C.3       4 GLC5        0.0000 
     41 CA         -1.2140    2.5540   33.2560 C.3      12 GLL5        0.0000 
     42 CA          0.6730    3.5650   29.8540 C.3       8 GLP5        0.0000 
     43 CA         -0.3930    0.8670   32.1795 C.3       4 GLC5        0.0000 
     44 CA          0.4280   -0.8200   31.1030 C.3       8 GLP5        0.0000 
     45 CA         -0.0425    1.8280   34.3685 C.3       4 GLC5        0.0000 
     46 CA          1.1290    1.1020   35.4810 C.3       8 GLP5        0.0000 
     47 CA         -1.2760    4.5485   32.2775 C.3       4 GLC5        0.0000 
     48 CA         -1.3380    6.5430   31.2990 C.3       8 GLP5        0.0000 
     49 N          -0.4865    0.6545   33.4060 N.am      2 SEC2        0.0000 
     50 N          -1.9150    1.3860   33.4610 N.am     10 SEL2        0.0000 
     51 N           0.9420   -0.0770   33.3510 N.am      6 SEP2        0.0000 
     52 CA         -5.6348   -4.7760   29.8807 C.3       4 GLC5        0.0000 
     53 CA         -7.6680   -4.5150   30.2800 C.3      12 GLL5        0.0000 
     54 CA         -3.5830   -5.1170   30.2490 C.3       8 GLP5        0.0000 
     55 CA         -8.4153   -6.3565   29.6463 C.3       4 GLC5        0.0000 
     56 CA         -9.1440   -8.2780   29.7800 C.3       8 GLP5        0.0000 
     57 CA         -5.9143   -0.5435   32.0482 C.3       4 GLC5        0.0000 
     58 CA         -5.6320    1.0480   30.8410 C.3       8 GLP5        0.0000 
     59 CA         -4.0525    3.8487   35.8127 C.3       4 GLC5        0.0000 
     60 CA         -5.7150    4.7220   36.2200 C.3       8 GLP5        0.0000 
     61 CA         -0.7007    1.6321   35.2421 C.3       4 GLC5        0.0000 
     62 CA         -2.7670    2.3650   35.5280 C.3      12 GLL5        0.0000 
@<TRIPOS>BOND
@<TRIPOS>SUBSTRUCTURE
     1 ALC1        4 GROUP        1 X    ALC  0     ROOT ALC X 1
     2 SEC2        9 GROUP        1 X    SEC  0     **** SEC X 2
     3 ASC3        1 GROUP        1 X    ASC  0     **** ASC X 3
     4 GLC5       19 GROUP        1 X    GLC  0     **** GLC X 6
     5 ALP1        6 GROUP        1 Y    ALP  0     ROOT ALP Y 8
     6 SEP2       11 GROUP        1 Y    SEP  0     **** SEP Y 9
     7 ASP3        3 GROUP        1 Y    ASP  0     **** ASP Y 10
     8 GLP5       21 GROUP        1 Y    GLP  0     **** GLP Y 13
     9 ALL1        5 GROUP        1 Z    ALL  0     ROOT ALL Z 15
    10 SEL2       10 GROUP        1 Z    SEL  0     **** SEL Z 16
    11 ASL3        2 GROUP        1 Z    ASL  0     **** ASL Z 17
    12 GLL5       20 GROUP        1 Z    GLL  0     **** GLL Z 20
@<TRIPOS>SET

