#    Name: 3swr_SFG_1_ligand
#    Modification time : Mon Mar 24 18:41:07 2014

@<TRIPOS>MOLECULE
3swr_SFG_1_ligand
   48    50     1     0     0
SMALL
NO_CHARGES


@<TRIPOS>ATOM
      1 N          -8.8670   -3.5670   28.1190 N.4       1 SFG300      0.0000 
      2 CA         -7.7050   -4.3550   28.7450 C.3       1 SFG300      0.0000 
      3 C          -7.5800   -5.7580   27.9810 C.2       1 SFG300      0.0000 
      4 O          -8.3780   -6.0360   27.0490 O.co2     1 SFG300      0.0000 
      5 OXT        -6.6280   -6.5530   28.3780 O.co2     1 SFG300      0.0000 
      6 CB         -7.6680   -4.5150   30.2800 C.3       1 SFG300      0.0000 
      7 CG         -7.7830   -3.2820   31.1550 C.3       1 SFG300      0.0000 
      8 CD         -7.5700   -3.4480   32.6720 C.3       1 SFG300      0.0000 
      9 NE         -8.7730   -3.8660   33.4320 N.3       1 SFG300      0.0000 
     10 C5'        -6.9930   -2.1390   33.2590 C.3       1 SFG300      0.0000 
     11 C4'        -5.4000   -2.1310   33.2520 C.3       1 SFG300      0.0000 
     12 O4'        -4.8860   -0.8390   33.5820 O.3       1 SFG300      0.0000 
     13 C3'        -4.7100   -3.0720   34.1790 C.3       1 SFG300      0.0000 
     14 O3'        -3.8820   -3.9590   33.4450 O.3       1 SFG300      0.0000 
     15 C2'        -3.9480   -2.1180   35.1780 C.3       1 SFG300      0.0000 
     16 O2'        -2.8020   -2.7340   35.7410 O.3       1 SFG300      0.0000 
     17 C1'        -3.6380   -0.8520   34.3640 C.3       1 SFG300      0.0000 
     18 N9         -3.5100    0.2800   35.0640 N.pl3     1 SFG300      0.0000 
     19 C8         -4.0310    0.7680   36.2480 C.2       1 SFG300      0.0000 
     20 N7         -3.6440    1.9680   36.5810 N.2       1 SFG300      0.0000 
     21 C5         -2.7670    2.3650   35.5280 C.ar      1 SFG300      0.0000 
     22 C6         -2.0130    3.5860   35.2830 C.ar      1 SFG300      0.0000 
     23 N6         -2.0160    4.6550   36.0960 N.pl3     1 SFG300      0.0000 
     24 N1         -1.2680    3.6000   34.1270 N.ar      1 SFG300      0.0000 
     25 C2         -1.2140    2.5540   33.2560 C.ar      1 SFG300      0.0000 
     26 N3         -1.9150    1.3860   33.4610 N.ar      1 SFG300      0.0000 
     27 C4         -2.6710    1.3490   34.6010 C.ar      1 SFG300      0.0000 
     28 H          -6.7562   -3.8142   28.4415 H         1 SFG300      0.0000 
     29 H          -6.7179   -5.0583   30.5442 H         1 SFG300      0.0000 
     30 H          -8.4804   -5.2394   30.5678 H         1 SFG300      0.0000 
     31 H          -8.7914   -2.8189   30.9974 H         1 SFG300      0.0000 
     32 H          -7.0593   -2.5088   30.7881 H         1 SFG300      0.0000 
     33 H          -6.7766   -4.2106   32.8061 H         1 SFG300      0.0000 
     34 H          -7.3223   -2.0216   34.2863 H         1 SFG300      0.0000 
     35 H          -7.3331   -1.2926   32.6712 H         1 SFG300      0.0000 
     36 H          -5.0881   -2.3752   32.2205 H         1 SFG300      0.0000 
     37 H          -5.4681   -3.5747   34.7592 H         1 SFG300      0.0000 
     38 H          -4.6885   -1.8376   35.9284 H         1 SFG300      0.0000 
     39 H          -2.8508   -1.1108   33.6929 H         1 SFG300      0.0000 
     40 H          -4.6700    0.1990   36.7941 H         1 SFG300      0.0000 
     41 H          -1.4796    5.4417   35.7905 H         1 SFG300      0.0000 
     42 H          -2.5544    4.5688   36.9343 H         1 SFG300      0.0000 
     43 H          -0.6172    2.6347   32.3937 H         1 SFG300      0.0000 
     44 H          -8.5609   -2.6955   27.7357 H         1 SFG300      0.0000 
     45 H          -9.3040   -4.0760   27.3774 H         1 SFG300      0.0000 
     46 H          -9.5784   -3.3583   28.7902 H         1 SFG300      0.0000 
     47 H          -3.2882   -3.3672   32.8999 H         1 SFG300      0.0000 
     48 H          -2.1475   -2.8000   34.9879 H         1 SFG300      0.0000 
@<TRIPOS>BOND
     1    2    1 1    
     2   44    1 1    
     3   45    1 1    
     4   46    1 1    
     5    3    2 1    
     6    6    2 1    
     7   28    2 1    
     8    4    3 ar   
     9    5    3 ar   
    10    7    6 1    
    11   29    6 1    
    12   30    6 1    
    13    8    7 1    
    14   31    7 1    
    15   32    7 1    
    16    9    8 1    
    17   10    8 1    
    18   33    8 1    
    19   11   10 1    
    20   34   10 1    
    21   35   10 1    
    22   12   11 1    
    23   13   11 1    
    24   36   11 1    
    25   17   12 1    
    26   14   13 1    
    27   15   13 1    
    28   37   13 1    
    29   47   14 1    
    30   16   15 1    
    31   17   15 1    
    32   38   15 1    
    33   48   16 1    
    34   18   17 1    
    35   39   17 1    
    36   19   18 1    
    37   27   18 1    
    38   20   19 2    
    39   40   19 1    
    40   21   20 1    
    41   22   21 ar   
    42   27   21 ar   
    43   23   22 1    
    44   24   22 ar   
    45   41   23 1    
    46   42   23 1    
    47   25   24 ar   
    48   26   25 ar   
    49   43   25 1    
    50   27   26 ar   
@<TRIPOS>SUBSTRUCTURE
     1 SFG300      1 GROUP   
@<TRIPOS>SET

