#    Name: 3fri_SAH_1_INTS_M
#    Modification time : Tue Mar 25 06:24:11 2014

@<TRIPOS>MOLECULE
3fri_SAH_1_INTS_M
   83     0    12     0     0
SMALL
NO_CHARGES


@<TRIPOS>ATOM
      1 O          12.7400   20.8345   31.4860 O.2       1 ALC1        0.0000 
      2 O          11.8800   19.8290   31.8410 O.2       9 ALL1        0.0000 
      3 O          13.6000   21.8400   31.1310 O.2       5 ALP1        0.0000 
      4 O          11.7070   18.7860   30.8160 O.2       1 ALC1        0.0000 
      5 O          11.5340   17.7430   29.7910 O.2       5 ALP1        0.0000 
      6 CA         12.6280   21.7160   32.9875 C.3       4 GLC5        0.0000 
      7 CA         10.7890   20.6840   32.3390 C.3      12 GLL5        0.0000 
      8 CA         14.4670   22.7480   33.6360 C.3       8 GLP5        0.0000 
      9 CA          9.2180   18.9810   29.2575 C.3       4 GLC5        0.0000 
     10 CA          9.7220   20.7480   30.0150 C.3      12 GLL5        0.0000 
     11 CA          8.7140   17.2140   28.5000 C.3       8 GLP5        0.0000 
     12 CA          7.6275   21.5185   30.2915 C.3       4 GLC5        0.0000 
     13 CA          9.0020   21.8480   28.7580 C.3      12 GLL5        0.0000 
     14 CA          6.2530   21.1890   31.8250 C.3       8 GLP5        0.0000 
     15 NZ          8.7825   17.7220   33.1310 N.4       3 LYC4        0.0000 
     16 NZ          9.5470   18.6820   32.5500 N.4      11 LYL4        0.0000 
     17 NZ          7.7190   16.9390   34.9910 N.4       7 LYP4        0.0000 
     18 N           8.7190   18.4065   34.0485 N.am      2 SEC2        0.0000 
     19 N           9.5470   18.6820   32.5500 N.am     10 SEL2        0.0000 
     20 N           7.8910   18.1310   35.5470 N.am      6 SEP2        0.0000 
     21 N           8.7825   17.7220   33.1310 N.am      2 SEC2        0.0000 
     22 N           8.0180   16.7620   33.7120 N.am      6 SEP2        0.0000 
     23 NZ          8.7190   18.4065   34.0485 N.4       3 LYC4        0.0000 
     24 NZ          8.8220   20.3640   33.7940 N.4      11 LYL4        0.0000 
     25 N           7.8310   20.1345   32.8040 N.am      2 SEC2        0.0000 
     26 N           8.8220   20.3640   33.7940 N.am     10 SEL2        0.0000 
     27 N           6.8400   19.9050   31.8140 N.am      6 SEP2        0.0000 
     28 N           8.3565   19.2475   34.6705 N.am      2 SEC2        0.0000 
     29 CA         10.2890   21.7125   25.6870 C.3       4 GLC5        0.0000 
     30 CA         10.3800   22.0230   27.5940 C.3      12 GLL5        0.0000 
     31 CA         10.1980   21.4020   23.7800 C.3       8 GLP5        0.0000 
     32 CA         13.2710   22.4015   28.4625 C.3       4 GLC5        0.0000 
     33 CA         11.4160   23.0380   28.1040 C.3      12 GLL5        0.0000 
     34 CA         15.1260   21.7650   28.8210 C.3       8 GLP5        0.0000 
     35 N          10.2460   26.0765   29.6255 N.am      2 SEC2        0.0000 
     36 N          11.0340   25.0410   29.4460 N.am     10 SEL2        0.0000 
     37 N           9.4580   27.1120   29.8050 N.am      6 SEP2        0.0000 
     38 O          12.3445   25.1930   30.0365 O.2       1 ALC1        0.0000 
     39 O          11.0340   25.0410   29.4460 O.2       9 ALL1        0.0000 
     40 O          13.6550   25.3450   30.6270 O.2       5 ALP1        0.0000 
     41 CA         10.5365   26.6890   26.2025 C.3       4 GLC5        0.0000 
     42 CA         11.7110   25.2170   27.0580 C.3      12 GLL5        0.0000 
     43 CA          9.3620   28.1610   25.3470 C.3       8 GLP5        0.0000 
     44 O          12.9165   26.7670   28.2555 O.2       1 ALC1        0.0000 
     45 O          11.9210   26.6030   27.3750 O.2       9 ALL1        0.0000 
     46 O          13.9120   26.9310   29.1360 O.2       5 ALP1        0.0000 
     47 CA         14.0665   23.0770   27.9445 C.3       4 GLC5        0.0000 
     48 CA         13.0070   24.3890   27.0680 C.3      12 GLL5        0.0000 
     49 CA         16.9970   26.3625   24.8115 C.3       4 GLC5        0.0000 
     50 CA         16.8640   24.5750   24.0660 C.3      12 GLL5        0.0000 
     51 CA         17.1300   28.1500   25.5570 C.3       8 GLP5        0.0000 
     52 CA         18.6730   25.7120   24.3750 C.3       4 GLC5        0.0000 
     53 CA         20.4820   26.8490   24.6840 C.3       8 GLP5        0.0000 
     54 CA         18.2755   23.1570   24.3800 C.3       4 GLC5        0.0000 
     55 CA         19.6870   21.7390   24.6940 C.3       8 GLP5        0.0000 
     56 CA         16.8950   22.6645   23.1305 C.3       4 GLC5        0.0000 
     57 CA         16.9260   20.7540   22.1950 C.3       8 GLP5        0.0000 
     58 O          18.5090   25.2050   22.3915 O.2       1 ALC1        0.0000 
     59 O          17.2700   24.5970   22.7380 O.2       9 ALL1        0.0000 
     60 O          19.7480   25.8130   22.0450 O.2       5 ALP1        0.0000 
     61 N          19.3240   24.5150   24.9080 N.am      2 SEC2        0.0000 
     62 N          17.7770   24.5950   25.0660 N.am     10 SEL2        0.0000 
     63 N          20.8710   24.4350   24.7500 N.am      6 SEP2        0.0000 
     64 CA         16.2680   23.1670   27.5885 C.3       4 GLC5        0.0000 
     65 CA         17.4100   24.5690   26.3560 C.3      12 GLL5        0.0000 
     66 CA         17.0805   25.6800   28.2430 C.3       4 GLC5        0.0000 
     67 CA         16.7510   26.7910   30.1300 C.3       8 GLP5        0.0000 
     68 CA         17.2700   26.3595   25.9565 C.3       4 GLC5        0.0000 
     69 CA         18.9460   25.7090   25.5200 C.3       4 GLC5        0.0000 
     70 CA         18.5485   23.1540   25.5250 C.3       4 GLC5        0.0000 
     71 CA         15.1365   23.1325   27.2975 C.3       4 GLC5        0.0000 
     72 CA         15.1470   24.5000   25.7740 C.3      12 GLL5        0.0000 
     73 CA         10.9258   23.0240   32.5808 C.3       4 GLC5        0.0000 
     74 CA         10.2060   21.5780   31.2220 C.3      12 GLL5        0.0000 
     75 CA         11.3540   24.9170   33.3810 C.3       8 GLP5        0.0000 
     76 CA          8.1085   21.1760   31.2218 C.3       4 GLC5        0.0000 
     77 CA         13.5040   26.5960   26.4710 C.3       4 GLC5        0.0000 
     78 CA         14.6490   28.3890   25.8790 C.3       8 GLP5        0.0000 
     79 CA         14.7900   26.2915   24.7640 C.3       4 GLC5        0.0000 
     80 CA         14.2640   28.0680   24.4420 C.3       8 GLP5        0.0000 
     81 CA         14.9555   22.4620   25.3275 C.3       4 GLC5        0.0000 
     82 CA         15.4850   24.5300   24.3980 C.3      12 GLL5        0.0000 
     83 CA         14.5950   20.4090   25.5690 C.3       8 GLP5        0.0000 
@<TRIPOS>BOND
@<TRIPOS>SUBSTRUCTURE
     1 ALC1        1 GROUP        1 X    ALC  0     ROOT ALC X 1
     2 SEC2       18 GROUP        1 X    SEC  0     **** SEC X 2
     3 LYC4       15 GROUP        1 X    LYC  0     **** LYC X 4
     4 GLC5        6 GROUP        1 X    GLC  0     **** GLC X 6
     5 ALP1        3 GROUP        1 Y    ALP  0     ROOT ALP Y 8
     6 SEP2       20 GROUP        1 Y    SEP  0     **** SEP Y 9
     7 LYP4       17 GROUP        1 Y    LYP  0     **** LYP Y 11
     8 GLP5        8 GROUP        1 Y    GLP  0     **** GLP Y 13
     9 ALL1        2 GROUP        1 Z    ALL  0     ROOT ALL Z 15
    10 SEL2       19 GROUP        1 Z    SEL  0     **** SEL Z 16
    11 LYL4       16 GROUP        1 Z    LYL  0     **** LYL Z 18
    12 GLL5        7 GROUP        1 Z    GLL  0     **** GLL Z 20
@<TRIPOS>SET

