#    Name: 3fri_SAH_1_ligand
#    Modification time : Tue Mar 25 06:24:12 2014

@<TRIPOS>MOLECULE
3fri_SAH_1_ligand
   46    48     1     0     0
SMALL
NO_CHARGES


@<TRIPOS>ATOM
      1 N          11.8800   19.8290   31.8410 N.4       1 SAH260      0.0000 
      2 CA         10.7890   20.6840   32.3390 C.3       1 SAH260      0.0000 
      3 CB         10.2060   21.5780   31.2220 C.3       1 SAH260      0.0000 
      4 CG          9.7220   20.7480   30.0150 C.3       1 SAH260      0.0000 
      5 SD          9.0020   21.8480   28.7580 S.3       1 SAH260      0.0000 
      6 C           9.6790   19.8320   32.9100 C.2       1 SAH260      0.0000 
      7 O           9.5470   18.6820   32.5500 O.co2     1 SAH260      0.0000 
      8 OXT         8.8220   20.3640   33.7940 O.co2     1 SAH260      0.0000 
      9 C5'        10.3800   22.0230   27.5940 C.3       1 SAH260      0.0000 
     10 C4'        11.4160   23.0380   28.1040 C.3       1 SAH260      0.0000 
     11 O4'        12.5400   23.0310   27.2180 O.3       1 SAH260      0.0000 
     12 C3'        10.8660   24.4850   28.1320 C.3       1 SAH260      0.0000 
     13 O3'        11.0340   25.0410   29.4460 O.3       1 SAH260      0.0000 
     14 C2'        11.7110   25.2170   27.0580 C.3       1 SAH260      0.0000 
     15 O2'        11.9210   26.6030   27.3750 O.3       1 SAH260      0.0000 
     16 C1'        13.0070   24.3890   27.0680 C.3       1 SAH260      0.0000 
     17 N9         13.7860   24.4540   25.8230 N.pl3     1 SAH260      0.0000 
     18 C8         13.3230   24.4560   24.5290 C.2       1 SAH260      0.0000 
     19 N7         14.3280   24.5010   23.6980 N.2       1 SAH260      0.0000 
     20 C5         15.4850   24.5300   24.3980 C.ar      1 SAH260      0.0000 
     21 C6         16.8640   24.5750   24.0660 C.ar      1 SAH260      0.0000 
     22 N6         17.2700   24.5970   22.7380 N.pl3     1 SAH260      0.0000 
     23 N1         17.7770   24.5950   25.0660 N.ar      1 SAH260      0.0000 
     24 C2         17.4100   24.5690   26.3560 C.ar      1 SAH260      0.0000 
     25 N3         16.1240   24.5230   26.7070 N.ar      1 SAH260      0.0000 
     26 C4         15.1470   24.5000   25.7740 C.ar      1 SAH260      0.0000 
     27 H          11.1527   21.3366   33.1245 H         1 SAH260      0.0000 
     28 H          10.9740   22.2759   30.8893 H         1 SAH260      0.0000 
     29 H           9.3667   22.1453   31.6237 H         1 SAH260      0.0000 
     30 H           8.9159   20.1022   30.2442 H         1 SAH260      0.0000 
     31 H          10.5077   20.2772   29.4856 H         1 SAH260      0.0000 
     32 H           9.8904   22.3317   26.6996 H         1 SAH260      0.0000 
     33 H          10.7578   21.0289   27.5305 H         1 SAH260      0.0000 
     34 H          11.7092   22.7699   29.0980 H         1 SAH260      0.0000 
     35 H           9.8622   24.4525   27.8012 H         1 SAH260      0.0000 
     36 H          11.2316   25.0511   26.1193 H         1 SAH260      0.0000 
     37 H          13.5823   24.6674   27.9150 H         1 SAH260      0.0000 
     38 H          12.3701   24.4271   24.3044 H         1 SAH260      0.0000 
     39 H          18.2552   24.6631   22.5801 H         1 SAH260      0.0000 
     40 H          16.5420   24.5448   22.0544 H         1 SAH260      0.0000 
     41 H          18.1533   24.5853   27.1028 H         1 SAH260      0.0000 
     42 H          12.6358   20.3692   31.4710 H         1 SAH260      0.0000 
     43 H          12.2589   19.2515   32.5641 H         1 SAH260      0.0000 
     44 H          11.5706   19.2195   31.1111 H         1 SAH260      0.0000 
     45 H          11.9838   24.8455   29.6901 H         1 SAH260      0.0000 
     46 H          12.6443   26.6037   28.0655 H         1 SAH260      0.0000 
@<TRIPOS>BOND
     1    2    1 1    
     2   42    1 1    
     3   43    1 1    
     4   44    1 1    
     5    3    2 1    
     6    6    2 1    
     7   27    2 1    
     8    4    3 1    
     9   28    3 1    
    10   29    3 1    
    11    5    4 1    
    12   30    4 1    
    13   31    4 1    
    14    9    5 1    
    15    7    6 ar   
    16    8    6 ar   
    17   10    9 1    
    18   32    9 1    
    19   33    9 1    
    20   11   10 1    
    21   12   10 1    
    22   34   10 1    
    23   16   11 1    
    24   13   12 1    
    25   14   12 1    
    26   35   12 1    
    27   45   13 1    
    28   15   14 1    
    29   16   14 1    
    30   36   14 1    
    31   46   15 1    
    32   17   16 1    
    33   37   16 1    
    34   18   17 1    
    35   26   17 1    
    36   19   18 2    
    37   38   18 1    
    38   20   19 1    
    39   21   20 ar   
    40   26   20 ar   
    41   22   21 1    
    42   23   21 ar   
    43   39   22 1    
    44   40   22 1    
    45   24   23 ar   
    46   25   24 ar   
    47   41   24 1    
    48   26   25 ar   
@<TRIPOS>SUBSTRUCTURE
     1 SAH260      1 GROUP   
@<TRIPOS>SET

