#    Name: 4gb9_0WR_1_INTS_M
#    Modification time : Mon Mar 24 21:38:39 2014

@<TRIPOS>MOLECULE
4gb9_0WR_1_INTS_M
   90     0     6     0     0
SMALL
NO_CHARGES


@<TRIPOS>ATOM
      1 CA          9.5320   -2.9070   14.8385 C.3       2 GLC5        0.0000 
      2 CA          9.0550   -2.9520   16.6550 C.3       6 GLL5        0.0000 
      3 CA         10.0090   -2.8620   13.0220 C.3       4 GLP5        0.0000 
      4 N          14.2185   -9.1630   22.2550 N.am      1 SEC2        0.0000 
      5 N          15.1030   -8.2290   22.2000 N.am      5 SEL2        0.0000 
      6 N          13.3340  -10.0970   22.3100 N.am      3 SEP2        0.0000 
      7 CA         12.3280    0.1435   21.4710 C.3       2 GLC5        0.0000 
      8 CA         12.3950   -0.6490   19.5700 C.3       6 GLL5        0.0000 
      9 CA         12.2610    0.9360   23.3720 C.3       4 GLP5        0.0000 
     10 CA         13.3960    1.0615   19.6430 C.3       2 GLC5        0.0000 
     11 CA         14.3970    2.7720   19.7160 C.3       4 GLP5        0.0000 
     12 CA         13.0465   -3.7100   17.3875 C.3       2 GLC5        0.0000 
     13 CA         13.0680   -1.7800   17.5420 C.3       6 GLL5        0.0000 
     14 CA         13.0250   -5.6400   17.2330 C.3       4 GLP5        0.0000 
     15 CA         14.9665    0.7830   18.9365 C.3       2 GLC5        0.0000 
     16 CA         14.7540   -0.9400   19.4390 C.3       6 GLL5        0.0000 
     17 CA         15.1790    2.5060   18.4340 C.3       4 GLP5        0.0000 
     18 CA         16.1285   -3.9530   21.3885 C.3       2 GLC5        0.0000 
     19 CA         16.6720   -4.1820   19.6440 C.3       6 GLL5        0.0000 
     20 CA         15.5850   -3.7240   23.1330 C.3       4 GLP5        0.0000 
     21 CA         17.4825   -3.7740   21.2775 C.3       2 GLC5        0.0000 
     22 CA         17.6660   -3.2940   19.2590 C.3       6 GLL5        0.0000 
     23 CA         17.2990   -4.2540   23.2960 C.3       4 GLP5        0.0000 
     24 CA         16.5015    0.8255   18.5845 C.3       2 GLC5        0.0000 
     25 CA         17.8240   -0.8550   18.7350 C.3       6 GLL5        0.0000 
     26 CA         17.9200   -6.2670   18.0130 C.3       2 GLC5        0.0000 
     27 CA         19.2790   -5.0240   19.2460 C.3       6 GLL5        0.0000 
     28 CA         16.5610   -7.5100   16.7800 C.3       4 GLP5        0.0000 
     29 CA         20.0520   -4.4795   20.8310 C.3       2 GLC5        0.0000 
     30 CA         20.8250   -3.9350   22.4160 C.3       4 GLP5        0.0000 
     31 CA         17.1770   -4.9085   21.5665 C.3       2 GLC5        0.0000 
     32 CA         17.0550   -5.5630   19.8370 C.3       6 GLL5        0.0000 
     33 CA         13.9225   -6.0275   18.9555 C.3       2 GLC5        0.0000 
     34 CA         14.8200   -6.4150   20.6780 C.3       6 GLL5        0.0000 
     35 CA         15.6905   -6.9625   18.7290 C.3       2 GLC5        0.0000 
     36 CA         14.1725   -8.8590   21.0335 C.3       2 GLC5        0.0000 
     37 CA         14.5950   -6.9320   22.0600 C.3       6 GLL5        0.0000 
     38 CA         13.7500  -10.7860   20.0070 C.3       4 GLP5        0.0000 
     39 CA         14.0800   -8.2450   23.4035 C.3       2 GLC5        0.0000 
     40 CA         13.5650   -9.5580   24.7470 C.3       4 GLP5        0.0000 
     41 CA         13.5535   -6.1810   23.6635 C.3       2 GLC5        0.0000 
     42 CA         12.5120   -5.4300   25.2670 C.3       4 GLP5        0.0000 
     43 CA         15.5940   -9.4210   23.4555 C.3       2 GLC5        0.0000 
     44 CA         16.4820   -8.2780   21.9230 C.3       6 GLL5        0.0000 
     45 CA         14.7060  -10.5640   24.9880 C.3       4 GLP5        0.0000 
     46 CA         16.8905   -6.2660   22.6095 C.3       2 GLC5        0.0000 
     47 CA         16.9255   -7.8570   24.0180 C.3       2 GLC5        0.0000 
     48 CA         17.3690   -7.4360   26.1130 C.3       4 GLP5        0.0000 
     49 CA         16.6445   -7.6825   18.6490 C.3       2 GLC5        0.0000 
     50 CA         16.7280   -7.8550   20.5180 C.3       6 GLL5        0.0000 
     51 CA         18.0940   -9.3700   20.0210 C.3       2 GLC5        0.0000 
     52 CA         19.4600  -10.8850   19.5240 C.3       4 GLP5        0.0000 
     53 CA         21.0250   -5.2255   21.0300 C.3       2 GLC5        0.0000 
     54 CA         21.2250   -6.5160   19.6440 C.3       6 GLL5        0.0000 
     55 N          23.7105   -6.0555   17.5480 N.am      1 SEC2        0.0000 
     56 N          22.6010   -5.6290   18.1390 N.am      5 SEL2        0.0000 
     57 N          24.8200   -6.4820   16.9570 N.am      3 SEP2        0.0000 
     58 CA         18.3780   -4.2890   15.5080 C.3       2 GLC5        0.0000 
     59 CA         20.1500   -4.1760   16.2970 C.3       6 GLL5        0.0000 
     60 CA         16.6060   -4.4020   14.7190 C.3       4 GLP5        0.0000 
     61 CA         19.9985   -4.3500   14.4845 C.3       2 GLC5        0.0000 
     62 CA         19.8470   -4.5240   12.6720 C.3       4 GLP5        0.0000 
     63 CA         23.2280   -4.9590   15.5100 C.3       2 GLC5        0.0000 
     64 CA         22.4570   -3.4570   16.5420 C.3       6 GLL5        0.0000 
     65 CA         23.9990   -6.4610   14.4780 C.3       4 GLP5        0.0000 
     66 CA          9.9367   -4.4725   17.2150 C.3       2 GLC5        0.0000 
     67 CA         10.6910   -6.2730   17.0770 C.3       4 GLP5        0.0000 
     68 CA         11.4883   -3.9460   17.8045 C.3       2 GLC5        0.0000 
     69 CA         11.7260   -2.4380   17.4720 C.3       6 GLL5        0.0000 
     70 CA         11.7600   -5.8440   17.8200 C.3       4 GLP5        0.0000 
     71 CA         16.7123   -6.1913   18.2602 C.3       2 GLC5        0.0000 
     72 CA         15.1463   -5.1988   22.2510 C.3       2 GLC5        0.0000 
     73 CA         15.1775   -9.4262   20.6138 C.3       2 GLC5        0.0000 
     74 CA         21.3532   -8.3550   18.9000 C.3       2 GLC5        0.0000 
     75 CA         20.8400   -7.3960   20.6420 C.3       6 GLL5        0.0000 
     76 CA         21.6740   -9.7540   17.6570 C.3       4 GLP5        0.0000 
     77 CA         23.4975   -5.6845   20.2163 C.3       2 GLC5        0.0000 
     78 CA         25.1290   -4.8090   21.0710 C.3       4 GLP5        0.0000 
     79 CA         22.0165   -9.0810   19.2255 C.3       2 GLC5        0.0000 
     80 CA         21.7260   -8.3610   21.0720 C.3       6 GLL5        0.0000 
     81 CA         21.9547   -7.0254   22.2332 C.3       2 GLC5        0.0000 
     82 CA         22.9920   -8.4550   20.5160 C.3       6 GLL5        0.0000 
     83 CA         21.7720   -5.8840   23.7800 C.3       4 GLP5        0.0000 
     84 CA         23.6470   -7.1825   17.5370 C.3       2 GLC5        0.0000 
     85 CA         23.3910   -7.5900   19.5230 C.3       6 GLL5        0.0000 
     86 CA         24.3450   -7.2680   15.7730 C.3       4 GLP5        0.0000 
     87 CA         22.3115   -8.4255   18.4790 C.3       2 GLC5        0.0000 
     88 CA         22.5070   -6.6040   19.0790 C.3       6 GLL5        0.0000 
     89 CA         24.1480   -7.0860   20.9347 C.3       2 GLC5        0.0000 
     90 CA         25.4210   -6.1730   21.7110 C.3       4 GLP5        0.0000 
@<TRIPOS>BOND
@<TRIPOS>SUBSTRUCTURE
     1 SEC2        4 GROUP        1 X    SEC  0     ROOT SEC X 2
     2 GLC5        1 GROUP        1 X    GLC  0     **** GLC X 6
     3 SEP2        6 GROUP        1 Y    SEP  0     ROOT SEP Y 9
     4 GLP5        3 GROUP        1 Y    GLP  0     **** GLP Y 13
     5 SEL2        5 GROUP        1 Z    SEL  0     ROOT SEL Z 16
     6 GLL5        2 GROUP        1 Z    GLL  0     **** GLL Z 20
@<TRIPOS>SET

