#    Name: 4gb9_0WR_1_ligand
#    Modification time : Mon Mar 24 21:38:39 2014

@<TRIPOS>MOLECULE
4gb9_0WR_1_ligand
   79    84     1     0     0
SMALL
NO_CHARGES


@<TRIPOS>ATOM
      1 C1          9.0550   -2.9520   16.6550 C.3       1 0WR1201     0.0000 
      2 N1         13.4260   -1.4250   18.9060 N.4       1 0WR1201     0.0000 
      3 O1         15.1030   -8.2290   22.2000 O.3       1 0WR1201     0.0000 
      4 C2          9.3100   -2.3920   18.0510 C.3       1 0WR1201     0.0000 
      5 N2         15.4750   -3.4400   19.7570 N.2       1 0WR1201     0.0000 
      6 O2          9.2420   -3.4290   18.9540 O.3       1 0WR1201     0.0000 
      7 C3          8.2310   -1.3550   18.3930 C.3       1 0WR1201     0.0000 
      8 N3         17.0700   -2.0030   19.1310 N.pl3     1 0WR1201     0.0000 
      9 C4         10.7070   -1.6580   18.1060 C.3       1 0WR1201     0.0000 
     10 N4         18.9750   -3.7330   19.0560 N.ar      1 0WR1201     0.0000 
     11 C5         11.0570   -1.2920   19.5000 C.3       1 0WR1201     0.0000 
     12 N5         18.3460   -5.9430   19.6190 N.ar      1 0WR1201     0.0000 
     13 C6         12.3950   -0.6490   19.5700 C.3       1 0WR1201     0.0000 
     14 N6         16.1480   -6.5970   20.2440 N.3       1 0WR1201     0.0000 
     15 C7         13.0680   -1.7800   17.5420 C.3       1 0WR1201     0.0000 
     16 C8         11.7260   -2.4380   17.4720 C.3       1 0WR1201     0.0000 
     17 C9         14.7540   -0.9400   19.4390 C.3       1 0WR1201     0.0000 
     18 C10        15.7670   -2.1020   19.4350 C.2       1 0WR1201     0.0000 
     19 C11        16.6720   -4.1820   19.6440 C.ar      1 0WR1201     0.0000 
     20 C12        17.6660   -3.2940   19.2590 C.ar      1 0WR1201     0.0000 
     21 C13        17.8240   -0.8550   18.7350 C.3       1 0WR1201     0.0000 
     22 C14        19.2790   -5.0240   19.2460 C.ar      1 0WR1201     0.0000 
     23 C15        17.0550   -5.5630   19.8370 C.ar      1 0WR1201     0.0000 
     24 C16        14.8200   -6.4150   20.6780 C.3       1 0WR1201     0.0000 
     25 C17        14.5950   -6.9320   22.0600 C.3       1 0WR1201     0.0000 
     26 C18        16.4820   -8.2780   21.9230 C.3       1 0WR1201     0.0000 
     27 C19        16.7280   -7.8550   20.5180 C.3       1 0WR1201     0.0000 
     28 N7         20.5970   -5.4580   19.0040 N.pl3     1 0WR1201     0.0000 
     29 C20        21.2250   -6.5160   19.6440 C.ar      1 0WR1201     0.0000 
     30 C21        20.8400   -7.3960   20.6420 C.ar      1 0WR1201     0.0000 
     31 C22        21.7260   -8.3610   21.0720 C.ar      1 0WR1201     0.0000 
     32 C23        22.9920   -8.4550   20.5160 C.ar      1 0WR1201     0.0000 
     33 C24        23.3910   -7.5900   19.5230 C.ar      1 0WR1201     0.0000 
     34 C25        22.5070   -6.6040   19.0790 C.ar      1 0WR1201     0.0000 
     35 N8         22.6010   -5.6290   18.1390 N.2       1 0WR1201     0.0000 
     36 C26        21.4830   -4.9530   18.0860 C.2       1 0WR1201     0.0000 
     37 N9         21.2400   -3.8880   17.2420 N.3       1 0WR1201     0.0000 
     38 C27        20.1500   -4.1760   16.2970 C.3       1 0WR1201     0.0000 
     39 C28        22.4570   -3.4570   16.5420 C.3       1 0WR1201     0.0000 
     40 H          13.2987   -2.4811   19.5233 H         1 0WR1201     0.0000 
     41 H          10.5532   -0.7151   17.5353 H         1 0WR1201     0.0000 
     42 H          11.0494   -2.1932   20.1314 H         1 0WR1201     0.0000 
     43 H          10.2980   -0.6047   19.9030 H         1 0WR1201     0.0000 
     44 H          12.3289    0.3640   19.1206 H         1 0WR1201     0.0000 
     45 H          12.6609   -0.4919   20.6363 H         1 0WR1201     0.0000 
     46 H          13.8212   -2.4645   17.1120 H         1 0WR1201     0.0000 
     47 H          13.0555   -0.8804   16.9007 H         1 0WR1201     0.0000 
     48 H          11.4810   -2.6164   16.4050 H         1 0WR1201     0.0000 
     49 H          11.8051   -3.4406   17.9398 H         1 0WR1201     0.0000 
     50 H          14.6374   -0.5822   20.4554 H         1 0WR1201     0.0000 
     51 H          15.1359   -0.1420   18.8129 H         1 0WR1201     0.0000 
     52 H          14.0989   -6.9240   19.9991 H         1 0WR1201     0.0000 
     53 H          14.5329   -5.3392   20.6626 H         1 0WR1201     0.0000 
     54 H          15.0695   -6.2264   22.7712 H         1 0WR1201     0.0000 
     55 H          13.5068   -6.8929   22.2674 H         1 0WR1201     0.0000 
     56 H          16.8876   -9.2948   22.0562 H         1 0WR1201     0.0000 
     57 H          17.0549   -7.6139   22.5915 H         1 0WR1201     0.0000 
     58 H          17.8246   -7.8389   20.3469 H         1 0WR1201     0.0000 
     59 H          16.3260   -8.6395   19.8435 H         1 0WR1201     0.0000 
     60 H          19.9027   -7.3280   21.0560 H         1 0WR1201     0.0000 
     61 H          21.4459   -9.0231   21.8171 H         1 0WR1201     0.0000 
     62 H          23.6431   -9.1873   20.8553 H         1 0WR1201     0.0000 
     63 H          24.3253   -7.6608   19.1075 H         1 0WR1201     0.0000 
     64 H           9.0934   -2.2381   15.9558 H         1 0WR1201     0.0000 
     65 H           9.7307   -3.6451   16.4037 H         1 0WR1201     0.0000 
     66 H           8.1547   -3.3818   16.5860 H         1 0WR1201     0.0000 
     67 H           8.3644   -0.9672   19.3051 H         1 0WR1201     0.0000 
     68 H           8.2315   -0.5916   17.7470 H         1 0WR1201     0.0000 
     69 H           7.3140   -1.7535   18.3751 H         1 0WR1201     0.0000 
     70 H          18.7843   -1.0801   18.5704 H         1 0WR1201     0.0000 
     71 H          17.4692   -0.4503   17.8922 H         1 0WR1201     0.0000 
     72 H          17.8062   -0.1398   19.4337 H         1 0WR1201     0.0000 
     73 H          19.9742   -3.4039   15.6864 H         1 0WR1201     0.0000 
     74 H          20.3582   -4.9651   15.7192 H         1 0WR1201     0.0000 
     75 H          19.2921   -4.3771   16.7697 H         1 0WR1201     0.0000 
     76 H          23.1686   -3.1638   17.1805 H         1 0WR1201     0.0000 
     77 H          22.8461   -4.1920   15.9867 H         1 0WR1201     0.0000 
     78 H          22.2796   -2.6881   15.9277 H         1 0WR1201     0.0000 
     79 H          10.1065   -3.3926   19.4553 H         1 0WR1201     0.0000 
@<TRIPOS>BOND
     1    4    1 1    
     2   64    1 1    
     3   65    1 1    
     4   66    1 1    
     5   13    2 1    
     6   15    2 1    
     7   17    2 1    
     8   40    2 1    
     9   25    3 1    
    10   26    3 1    
    11    6    4 1    
    12    7    4 1    
    13    9    4 1    
    14   18    5 2    
    15   19    5 1    
    16   79    6 1    
    17   67    7 1    
    18   68    7 1    
    19   69    7 1    
    20   18    8 1    
    21   20    8 1    
    22   21    8 1    
    23   11    9 1    
    24   16    9 1    
    25   41    9 1    
    26   20   10 ar   
    27   22   10 ar   
    28   13   11 1    
    29   42   11 1    
    30   43   11 1    
    31   22   12 ar   
    32   23   12 ar   
    33   44   13 1    
    34   45   13 1    
    35   23   14 1    
    36   24   14 1    
    37   27   14 1    
    38   16   15 1    
    39   46   15 1    
    40   47   15 1    
    41   48   16 1    
    42   49   16 1    
    43   18   17 1    
    44   50   17 1    
    45   51   17 1    
    46   20   19 ar   
    47   23   19 ar   
    48   70   21 1    
    49   71   21 1    
    50   72   21 1    
    51   28   22 1    
    52   25   24 1    
    53   52   24 1    
    54   53   24 1    
    55   54   25 1    
    56   55   25 1    
    57   27   26 1    
    58   56   26 1    
    59   57   26 1    
    60   58   27 1    
    61   59   27 1    
    62   29   28 1    
    63   36   28 1    
    64   30   29 ar   
    65   34   29 ar   
    66   31   30 ar   
    67   60   30 1    
    68   32   31 ar   
    69   61   31 1    
    70   33   32 ar   
    71   62   32 1    
    72   34   33 ar   
    73   63   33 1    
    74   35   34 1    
    75   36   35 2    
    76   37   36 1    
    77   38   37 1    
    78   39   37 1    
    79   73   38 1    
    80   74   38 1    
    81   75   38 1    
    82   76   39 1    
    83   77   39 1    
    84   78   39 1    
@<TRIPOS>SUBSTRUCTURE
     1 0WR1201     1 GROUP   
@<TRIPOS>SET

