#    Name: 3axt_SAM_1_INTS_M
#    Modification time : Mon Mar 24 18:28:12 2014

@<TRIPOS>MOLECULE
3axt_SAM_1_INTS_M
   72     0    15     0     0
SMALL
NO_CHARGES


@<TRIPOS>ATOM
      1 OD1        18.7925   15.4395   48.0490 O.co2     3 ASC3        0.0000 
      2 OD1        18.6520   13.9060   47.5810 O.co2    13 ASL3        0.0000 
      3 OD1        18.9330   16.9730   48.5170 O.co2     8 ASP3        0.0000 
      4 O          19.2765   13.3405   46.5040 O.2       1 ALC1        0.0000 
      5 O          18.6520   13.9060   47.5810 O.2      11 ALL1        0.0000 
      6 O          19.9010   12.7750   45.4270 O.2       6 ALP1        0.0000 
      7 O          18.7925   15.4395   48.0490 O.2       1 ALC1        0.0000 
      8 O          18.9330   16.9730   48.5170 O.2       6 ALP1        0.0000 
      9 O          17.4780   12.6730   47.7330 O.2       1 ALC1        0.0000 
     10 O          16.3040   11.4400   47.8850 O.2       6 ALP1        0.0000 
     11 NZ         16.4500   15.5525   48.7275 N.4       4 LYC4        0.0000 
     12 NZ         17.2580   14.9980   49.6580 N.4      14 LYL4        0.0000 
     13 NZ         15.2230   17.3530   47.9960 N.4       9 LYP4        0.0000 
     14 N          16.4500   15.5525   48.7275 N.am      2 SEC2        0.0000 
     15 N          17.2580   14.9980   49.6580 N.am     12 SEL2        0.0000 
     16 N          15.6420   16.1070   47.7970 N.am      7 SEP2        0.0000 
     17 CA         19.9705   15.8675   47.1760 C.3       5 GLC5        0.0000 
     18 CA         21.2340   14.3410   48.1690 C.3      15 GLL5        0.0000 
     19 CA         18.7070   17.3940   46.1830 C.3      10 GLP5        0.0000 
     20 CA         24.2060   15.0810   49.8500 C.3       5 GLC5        0.0000 
     21 CA         22.9970   14.4590   48.5650 C.3      15 GLL5        0.0000 
     22 CA         25.4150   15.7030   51.1350 C.3      10 GLP5        0.0000 
     23 CA         23.3025   17.2505   46.8400 C.3       5 GLC5        0.0000 
     24 CA         23.1530   16.2590   48.6210 C.3      15 GLL5        0.0000 
     25 CA         23.4520   18.2420   45.0590 C.3      10 GLP5        0.0000 
     26 CA         24.0955   16.6460   49.8810 C.3       5 GLC5        0.0000 
     27 CA         25.0380   17.0330   51.1410 C.3      10 GLP5        0.0000 
     28 CA         25.0565   14.6905   48.5865 C.3       5 GLC5        0.0000 
     29 CA         23.7780   14.1260   46.9650 C.3      15 GLL5        0.0000 
     30 CA         26.3350   15.2550   50.2080 C.3      10 GLP5        0.0000 
     31 CA         22.7990   11.6355   48.1430 C.3       5 GLC5        0.0000 
     32 CA         24.1710   12.6700   46.7350 C.3      15 GLL5        0.0000 
     33 CA         21.4270   10.6010   49.5510 C.3      10 GLP5        0.0000 
     34 CA         25.8600   13.7430   48.8755 C.3       5 GLC5        0.0000 
     35 CA         25.3850   12.2310   47.5430 C.3      15 GLL5        0.0000 
     36 O          25.9665    9.2280   46.3155 O.2       1 ALC1        0.0000 
     37 O          26.7580   10.3630   46.8930 O.2      11 ALL1        0.0000 
     38 O          25.1750    8.0930   45.7380 O.2       6 ALP1        0.0000 
     39 CA         24.6485   12.4970   43.6165 C.3       5 GLC5        0.0000 
     40 CA         25.6150   11.6430   45.2220 C.3      15 GLL5        0.0000 
     41 CA         23.6820   13.3510   42.0110 C.3      10 GLP5        0.0000 
     42 CA         28.2185   11.5080   38.9525 C.3       5 GLC5        0.0000 
     43 CA         27.5850   12.1870   40.7840 C.3      15 GLL5        0.0000 
     44 CA         28.8520   10.8290   37.1210 C.3      10 GLP5        0.0000 
     45 CA         25.8140   12.4690   39.5635 C.3       5 GLC5        0.0000 
     46 CA         24.0430   12.7510   38.3430 C.3      10 GLP5        0.0000 
     47 O          28.2925   12.9880   38.5400 O.2       1 ALC1        0.0000 
     48 O          28.4830   12.8940   40.1040 O.2      11 ALL1        0.0000 
     49 O          28.1020   13.0820   36.9760 O.2       6 ALP1        0.0000 
     50 N          26.1075   10.9820   38.9815 N.am      2 SEC2        0.0000 
     51 N          26.8500   11.2040   40.1540 N.am     12 SEL2        0.0000 
     52 N          25.3650   10.7600   37.8090 N.am      7 SEP2        0.0000 
     53 CA         24.8010   11.9130   41.4395 C.3       5 GLC5        0.0000 
     54 CA         25.9200   10.4750   40.8680 C.3      15 GLL5        0.0000 
     55 CA         26.9995    9.1445   41.3820 C.3       5 GLC5        0.0000 
     56 CA         28.0790    7.8140   41.8960 C.3      10 GLP5        0.0000 
     57 CA         26.4910    9.7595   39.2110 C.3       5 GLC5        0.0000 
     58 CA         27.0620    9.0440   37.5540 C.3      10 GLP5        0.0000 
     59 CA         24.9815   11.6130   39.6055 C.3       5 GLC5        0.0000 
     60 N          25.7705    9.0670   42.5090 N.am      2 SEC2        0.0000 
     61 N          25.7240   10.7270   42.2110 N.am     12 SEL2        0.0000 
     62 N          25.8170    7.4070   42.8070 N.am      7 SEP2        0.0000 
     63 CA         20.5600   12.0660   49.3193 C.3       5 GLC5        0.0000 
     64 CA         20.4350   13.6130   49.2420 C.3      15 GLL5        0.0000 
     65 CA         21.7713   12.5005   48.9590 C.3       5 GLC5        0.0000 
     66 CA         22.8922   13.5240   45.2485 C.3       5 GLC5        0.0000 
     67 CA         21.8100   13.6500   43.6470 C.3      10 GLP5        0.0000 
     68 CA         25.3232   12.6760   42.0787 C.3       5 GLC5        0.0000 
     69 CA         27.3830   12.4350   42.1340 C.3      15 GLL5        0.0000 
     70 CA         27.8228   10.3205   42.5868 C.3       5 GLC5        0.0000 
     71 CA         26.4450   11.6910   42.8340 C.3      15 GLL5        0.0000 
     72 CA         28.6810    8.6400   43.0270 C.3      10 GLP5        0.0000 
@<TRIPOS>BOND
@<TRIPOS>SUBSTRUCTURE
     1 ALC1        4 GROUP        1 X    ALC  0     ROOT ALC X 1
     2 SEC2       14 GROUP        1 X    SEC  0     **** SEC X 2
     3 ASC3        1 GROUP        1 X    ASC  0     **** ASC X 3
     4 LYC4       11 GROUP        1 X    LYC  0     **** LYC X 4
     5 GLC5       17 GROUP        1 X    GLC  0     **** GLC X 6
     6 ALP1        6 GROUP        1 Y    ALP  0     ROOT ALP Y 8
     7 SEP2       16 GROUP        1 Y    SEP  0     **** SEP Y 9
     8 ASP3        3 GROUP        1 Y    ASP  0     **** ASP Y 10
     9 LYP4       13 GROUP        1 Y    LYP  0     **** LYP Y 11
    10 GLP5       19 GROUP        1 Y    GLP  0     **** GLP Y 13
    11 ALL1        5 GROUP        1 Z    ALL  0     ROOT ALL Z 15
    12 SEL2       15 GROUP        1 Z    SEL  0     **** SEL Z 16
    13 ASL3        2 GROUP        1 Z    ASL  0     **** ASL Z 17
    14 LYL4       12 GROUP        1 Z    LYL  0     **** LYL Z 18
    15 GLL5       18 GROUP        1 Z    GLL  0     **** GLL Z 20
@<TRIPOS>SET

