#    Name: 3axt_SAM_1_ligand
#    Modification time : Mon Mar 24 18:28:12 2014

@<TRIPOS>MOLECULE
3axt_SAM_1_ligand
   50    52     1     0     0
SMALL
NO_CHARGES


@<TRIPOS>ATOM
      1 N          18.6520   13.9060   47.5810 N.4       1 SAM397      0.0000 
      2 CA         18.9510   13.4490   48.9330 C.3       1 SAM397      0.0000 
      3 C          18.0880   14.1480   49.9800 C.2       1 SAM397      0.0000 
      4 O          18.2020   13.8770   51.1750 O.co2     1 SAM397      0.0000 
      5 OXT        17.2580   14.9980   49.6580 O.co2     1 SAM397      0.0000 
      6 CB         20.4350   13.6130   49.2420 C.3       1 SAM397      0.0000 
      7 CG         21.2340   14.3410   48.1690 C.3       1 SAM397      0.0000 
      8 SD         22.9970   14.4590   48.5650 S.3       1 SAM397      0.0000 
      9 CE         23.1530   16.2590   48.6210 C.3       1 SAM397      0.0000 
     10 C5'        23.7780   14.1260   46.9650 C.3       1 SAM397      0.0000 
     11 C4'        24.1710   12.6700   46.7350 C.3       1 SAM397      0.0000 
     12 O4'        24.5010   12.4980   45.3720 O.3       1 SAM397      0.0000 
     13 C3'        25.3850   12.2310   47.5430 C.3       1 SAM397      0.0000 
     14 O3'        25.0130   11.2230   48.4530 O.3       1 SAM397      0.0000 
     15 C2'        26.3710   11.6690   46.5380 C.3       1 SAM397      0.0000 
     16 O2'        26.7580   10.3630   46.8930 O.3       1 SAM397      0.0000 
     17 C1'        25.6150   11.6430   45.2220 C.3       1 SAM397      0.0000 
     18 N9         26.4590   12.1450   44.1270 N.pl3     1 SAM397      0.0000 
     19 C8         27.3870   13.1480   44.2130 C.2       1 SAM397      0.0000 
     20 N7         27.9450   13.3140   42.9930 N.2       1 SAM397      0.0000 
     21 C5         27.3830   12.4350   42.1340 C.ar      1 SAM397      0.0000 
     22 C6         27.5850   12.1870   40.7840 C.ar      1 SAM397      0.0000 
     23 N6         28.4830   12.8940   40.1040 N.pl3     1 SAM397      0.0000 
     24 N1         26.8500   11.2040   40.1540 N.ar      1 SAM397      0.0000 
     25 C2         25.9200   10.4750   40.8680 C.ar      1 SAM397      0.0000 
     26 N3         25.7240   10.7270   42.2110 N.ar      1 SAM397      0.0000 
     27 C4         26.4450   11.6910   42.8340 C.ar      1 SAM397      0.0000 
     28 H          18.7299   12.3661   49.0025 H         1 SAM397      0.0000 
     29 H          20.8791   12.6118   49.4017 H         1 SAM397      0.0000 
     30 H          20.5422   14.1577   50.1996 H         1 SAM397      0.0000 
     31 H          20.9559   15.3720   48.0516 H         1 SAM397      0.0000 
     32 H          21.2451   13.8327   47.2227 H         1 SAM397      0.0000 
     33 H          24.6240   14.8017   46.9774 H         1 SAM397      0.0000 
     34 H          23.0322   14.4844   46.2665 H         1 SAM397      0.0000 
     35 H          23.3369   12.0385   47.0048 H         1 SAM397      0.0000 
     36 H          25.8130   13.0832   48.0027 H         1 SAM397      0.0000 
     37 H          27.1829   12.3465   46.4436 H         1 SAM397      0.0000 
     38 H          25.3103   10.6366   45.0282 H         1 SAM397      0.0000 
     39 H          27.5980   13.6427   45.0085 H         1 SAM397      0.0000 
     40 H          29.2915   13.1862   40.6149 H         1 SAM397      0.0000 
     41 H          28.2688   13.0697   39.1431 H         1 SAM397      0.0000 
     42 H          25.3697    9.7394   40.3962 H         1 SAM397      0.0000 
     43 H          18.8095   14.8881   47.4776 H         1 SAM397      0.0000 
     44 H          19.2196   13.4447   46.8990 H         1 SAM397      0.0000 
     45 H          17.6985   13.7344   47.3333 H         1 SAM397      0.0000 
     46 H          24.1096   16.5479   48.6586 H         1 SAM397      0.0000 
     47 H          22.7474   16.6922   47.8161 H         1 SAM397      0.0000 
     48 H          22.6981   16.6464   49.4228 H         1 SAM397      0.0000 
     49 H          25.7697   10.5693   48.4385 H         1 SAM397      0.0000 
     50 H          26.1114    9.7641   46.4204 H         1 SAM397      0.0000 
@<TRIPOS>BOND
     1    2    1 1    
     2   43    1 1    
     3   44    1 1    
     4   45    1 1    
     5    3    2 1    
     6    6    2 1    
     7   28    2 1    
     8    4    3 ar   
     9    5    3 ar   
    10    7    6 1    
    11   29    6 1    
    12   30    6 1    
    13    8    7 1    
    14   31    7 1    
    15   32    7 1    
    16    9    8 1    
    17   10    8 1    
    18   46    9 1    
    19   47    9 1    
    20   48    9 1    
    21   11   10 1    
    22   33   10 1    
    23   34   10 1    
    24   12   11 1    
    25   13   11 1    
    26   35   11 1    
    27   17   12 1    
    28   14   13 1    
    29   15   13 1    
    30   36   13 1    
    31   49   14 1    
    32   16   15 1    
    33   17   15 1    
    34   37   15 1    
    35   50   16 1    
    36   18   17 1    
    37   38   17 1    
    38   19   18 1    
    39   27   18 1    
    40   20   19 2    
    41   39   19 1    
    42   21   20 1    
    43   22   21 ar   
    44   27   21 ar   
    45   23   22 1    
    46   24   22 ar   
    47   40   23 1    
    48   41   23 1    
    49   25   24 ar   
    50   26   25 ar   
    51   42   25 1    
    52   27   26 ar   
@<TRIPOS>SUBSTRUCTURE
     1 SAM397      1 GROUP   
@<TRIPOS>SET

