#    Name: 2hi4_BHF_1_INTS_M
#    Modification time : Tue Mar 25 16:32:36 2014

@<TRIPOS>MOLECULE
2hi4_BHF_1_INTS_M
   58     0     3     0     0
SMALL
NO_CHARGES


@<TRIPOS>ATOM
      1 CA          4.0735   15.4845   20.1330 C.3       1 GLC5        0.0000 
      2 CA          3.9650   16.7450   21.6010 C.3       3 GLL5        0.0000 
      3 CA          4.1820   14.2240   18.6650 C.3       2 GLP5        0.0000 
      4 CA          5.6300   15.4935   21.6240 C.3       1 GLC5        0.0000 
      5 CA          7.2950   14.2420   21.6470 C.3       2 GLP5        0.0000 
      6 CA          3.9270   16.2720   23.4605 C.3       1 GLC5        0.0000 
      7 CA          3.8890   15.7990   25.3200 C.3       2 GLP5        0.0000 
      8 CA          2.3220   13.4130   19.8130 C.3       1 GLC5        0.0000 
      9 CA          0.9080   15.0350   20.3670 C.3       3 GLL5        0.0000 
     10 CA          3.7360   11.7910   19.2590 C.3       2 GLP5        0.0000 
     11 CA          1.7410   18.6490   21.6565 C.3       1 GLC5        0.0000 
     12 CA          1.7600   17.2370   19.9930 C.3       3 GLL5        0.0000 
     13 CA          1.7220   20.0610   23.3200 C.3       2 GLP5        0.0000 
     14 CA          3.8650   16.6995   19.4375 C.3       1 GLC5        0.0000 
     15 CA          3.7860   17.9790   20.9830 C.3       3 GLL5        0.0000 
     16 CA          3.9440   15.4200   17.8920 C.3       2 GLP5        0.0000 
     17 CA          2.7988   18.7115   22.3060 C.3       1 GLC5        0.0000 
     18 CA          0.1808   16.5078   21.5753 C.3       1 GLC5        0.0000 
     19 CA          1.8730   16.0040   20.6260 C.3       3 GLL5        0.0000 
     20 CA         -1.0290   17.4960   22.6540 C.3       2 GLP5        0.0000 
     21 CA         -0.6012   16.7062   20.9020 C.3       1 GLC5        0.0000 
     22 CA         -0.1310   15.3030   19.4760 C.3       3 GLL5        0.0000 
     23 CA         -0.3587   16.9632   15.6615 C.3       1 GLC5        0.0000 
     24 CA         -1.2200   16.7780   17.8880 C.3       3 GLL5        0.0000 
     25 CA          0.5250   16.5340   13.7630 C.3       2 GLP5        0.0000 
     26 CA         -2.3647   16.6343   16.5390 C.3       1 GLC5        0.0000 
     27 CA         -1.2650   18.0070   17.2320 C.3       3 GLL5        0.0000 
     28 CA         -3.4870   15.8760   15.5180 C.3       2 GLP5        0.0000 
     29 CA         -1.1292   19.5267   15.6060 C.3       1 GLC5        0.0000 
     30 CA         -1.4660   20.5530   13.8410 C.3       2 GLP5        0.0000 
     31 CA         -1.2854   19.9564   18.7178 C.3       1 GLC5        0.0000 
     32 CA         -0.3200   18.9940   17.5100 C.3       3 GLL5        0.0000 
     33 CA         -2.5180   21.2900   19.5290 C.3       2 GLP5        0.0000 
     34 CA          0.1095   17.4352   21.0980 C.3       1 GLC5        0.0000 
     35 CA          0.7360   17.5120   19.0910 C.3       3 GLL5        0.0000 
     36 CA          3.4855   19.5285   22.4078 C.3       1 GLC5        0.0000 
     37 CA          4.6840   19.0340   21.0900 C.3       3 GLL5        0.0000 
     38 CA          6.8127   18.7163   20.4157 C.3       1 GLC5        0.0000 
     39 CA          6.6130   20.0910   22.0220 C.3       3 GLL5        0.0000 
     40 CA          7.4120   17.9080   18.8700 C.3       2 GLP5        0.0000 
     41 CA          7.4597   18.5862   23.1277 C.3       1 GLC5        0.0000 
     42 CA          5.8140   18.9580   21.9010 C.3       3 GLL5        0.0000 
     43 CA          8.7060   17.6480   24.2940 C.3       2 GLP5        0.0000 
     44 CA          8.3763   21.0592   22.0670 C.3       1 GLC5        0.0000 
     45 CA         10.2920   21.4360   22.4450 C.3       2 GLP5        0.0000 
     46 CA          6.1019   20.5266   23.6219 C.3       1 GLC5        0.0000 
     47 CA          6.3080   21.2740   21.3560 C.3       3 GLL5        0.0000 
     48 CA          5.9430   20.6540   25.5850 C.3       2 GLP5        0.0000 
     49 CA          6.5777   19.6075   19.9100 C.3       1 GLC5        0.0000 
     50 CA          5.1790   21.3400   20.5440 C.3       3 GLL5        0.0000 
     51 CA          4.2390   21.5780   18.5748 C.3       1 GLC5        0.0000 
     52 CA          3.7010   22.3800   16.6680 C.3       2 GLP5        0.0000 
     53 CA          3.3040   21.1005   21.5358 C.3       1 GLC5        0.0000 
     54 CA          1.8310   21.4250   22.5900 C.3       2 GLP5        0.0000 
     55 CA          5.8101   21.1668   18.8693 C.3       1 GLC5        0.0000 
     56 CA          4.3750   20.2120   20.4190 C.3       3 GLL5        0.0000 
     57 CA          6.5610   21.5740   17.0540 C.3       2 GLP5        0.0000 
     58 CA          5.8585   18.6336   19.7989 C.3       1 GLC5        0.0000 
@<TRIPOS>BOND
@<TRIPOS>SUBSTRUCTURE
     1 GLC5        1 GROUP        1 X    GLC  0     ROOT GLC X 6
     2 GLP5        3 GROUP        1 Y    GLP  0     ROOT GLP Y 13
     3 GLL5        2 GROUP        1 Z    GLL  0     ROOT GLL Z 20
@<TRIPOS>SET

