#    Name: 2hi4_BHF_1_ligand
#    Modification time : Tue Mar 25 16:32:36 2014

@<TRIPOS>MOLECULE
2hi4_BHF_1_ligand
   33    36     1     0     0
SMALL
NO_CHARGES


@<TRIPOS>ATOM
      1 C8          3.9650   16.7450   21.6010 C.2       1 BHF800      0.0000 
      2 C9          2.9920   15.7620   21.4290 C.2       1 BHF800      0.0000 
      3 O2          3.0940   14.7420   22.1110 O.2       1 BHF800      0.0000 
      4 C10         1.8730   16.0040   20.6260 C.ar      1 BHF800      0.0000 
      5 C11         0.9080   15.0350   20.3670 C.ar      1 BHF800      0.0000 
      6 C12        -0.1310   15.3030   19.4760 C.ar      1 BHF800      0.0000 
      7 C13        -0.2160   16.5300   18.8240 C.ar      1 BHF800      0.0000 
      8 C14        -1.2200   16.7780   17.8880 C.ar      1 BHF800      0.0000 
      9 C15        -1.2650   18.0070   17.2320 C.ar      1 BHF800      0.0000 
     10 C16        -0.3200   18.9940   17.5100 C.ar      1 BHF800      0.0000 
     11 C17         0.6870   18.7450   18.4420 C.ar      1 BHF800      0.0000 
     12 C18         0.7360   17.5120   19.0910 C.ar      1 BHF800      0.0000 
     13 C19         1.7600   17.2370   19.9930 C.ar      1 BHF800      0.0000 
     14 O1          2.6110   18.2330   20.3460 O.3       1 BHF800      0.0000 
     15 C7          3.7860   17.9790   20.9830 C.2       1 BHF800      0.0000 
     16 C1          4.6840   19.0340   21.0900 C.ar      1 BHF800      0.0000 
     17 C2          5.8140   18.9580   21.9010 C.ar      1 BHF800      0.0000 
     18 C3          6.6130   20.0910   22.0220 C.ar      1 BHF800      0.0000 
     19 C4          6.3080   21.2740   21.3560 C.ar      1 BHF800      0.0000 
     20 C5          5.1790   21.3400   20.5440 C.ar      1 BHF800      0.0000 
     21 C6          4.3750   20.2120   20.4190 C.ar      1 BHF800      0.0000 
     22 H           4.7912   16.5627   22.1685 H         1 BHF800      0.0000 
     23 H           0.9600   14.1198   20.8326 H         1 BHF800      0.0000 
     24 H          -0.8477   14.5794   19.2980 H         1 BHF800      0.0000 
     25 H          -1.9216   16.0591   17.6837 H         1 BHF800      0.0000 
     26 H          -2.0031   18.1881   16.5353 H         1 BHF800      0.0000 
     27 H          -0.3653   19.8993   17.0310 H         1 BHF800      0.0000 
     28 H           1.3868   19.4641   18.6486 H         1 BHF800      0.0000 
     29 H           6.0476   18.0999   22.3898 H         1 BHF800      0.0000 
     30 H           7.4589   20.0525   22.6251 H         1 BHF800      0.0000 
     31 H           6.9135   22.0961   21.4628 H         1 BHF800      0.0000 
     32 H           4.9460   22.2012   20.0495 H         1 BHF800      0.0000 
     33 H           3.5335   20.2502   19.8170 H         1 BHF800      0.0000 
@<TRIPOS>BOND
     1    2    1 1    
     2   15    1 2    
     3   22    1 1    
     4    3    2 2    
     5    4    2 1    
     6    5    4 ar   
     7   13    4 ar   
     8    6    5 ar   
     9   23    5 1    
    10    7    6 ar   
    11   24    6 1    
    12    8    7 ar   
    13   12    7 ar   
    14    9    8 ar   
    15   25    8 1    
    16   10    9 ar   
    17   26    9 1    
    18   11   10 ar   
    19   27   10 1    
    20   12   11 ar   
    21   28   11 1    
    22   13   12 ar   
    23   14   13 1    
    24   15   14 1    
    25   16   15 1    
    26   17   16 ar   
    27   21   16 ar   
    28   18   17 ar   
    29   29   17 1    
    30   19   18 ar   
    31   30   18 1    
    32   20   19 ar   
    33   31   19 1    
    34   21   20 ar   
    35   32   20 1    
    36   33   21 1    
@<TRIPOS>SUBSTRUCTURE
     1 BHF800      1 GROUP   
@<TRIPOS>SET

