#    Name: 2qre_AMZ_2_INTS_M
#    Modification time : Mon Mar 24 22:38:00 2014

@<TRIPOS>MOLECULE
2qre_AMZ_2_INTS_M
   54     0    12     0     0
SMALL
NO_CHARGES


@<TRIPOS>ATOM
      1 N           5.1910  -26.0825   31.1835 N.am      2 SEC2        0.0000 
      2 N           3.9970  -25.9220   30.6110 N.am     10 SEL2        0.0000 
      3 N           6.3850  -26.2430   31.7560 N.am      6 SEP2        0.0000 
      4 N           4.7000  -26.6380   29.7255 N.am      2 SEC2        0.0000 
      5 N           5.4030  -27.3540   28.8400 N.am      6 SEP2        0.0000 
      6 O           5.3885  -24.0940   32.7210 O.2       1 ALC1        0.0000 
      7 O           4.0860  -24.1910   32.0540 O.2       9 ALL1        0.0000 
      8 O           6.6910  -23.9970   33.3880 O.2       5 ALP1        0.0000 
      9 CA          0.4665  -26.9015   30.0540 C.3       4 GLC5        0.0000 
     10 CA          1.4790  -25.1300   29.6190 C.3      12 GLL5        0.0000 
     11 CA         -0.5460  -28.6730   30.4890 C.3       8 GLP5        0.0000 
     12 O           0.3380  -27.1975   29.3100 O.2       1 ALC1        0.0000 
     13 O           1.7310  -26.4250   29.2660 O.2       9 ALL1        0.0000 
     14 O          -1.0550  -27.9700   29.3540 O.2       5 ALP1        0.0000 
     15 CA         -0.5845  -26.8225   29.3940 C.3       4 GLC5        0.0000 
     16 CA         -0.6230  -24.9720   28.2990 C.3      12 GLL5        0.0000 
     17 CA          1.1625  -23.6995   27.8095 C.3       4 GLC5        0.0000 
     18 CA          2.9480  -22.4270   27.3200 C.3       8 GLP5        0.0000 
     19 O          -4.3435  -25.5720   27.4235 O.2       1 ALC1        0.0000 
     20 O          -3.1700  -25.6050   26.8060 O.2       9 ALL1        0.0000 
     21 O          -5.5170  -25.5390   28.0410 O.2       5 ALP1        0.0000 
     22 N          -1.8830  -26.7830   29.3945 N.am      2 SEC2        0.0000 
     23 N          -2.7110  -25.5960   29.4350 N.am     10 SEL2        0.0000 
     24 N          -1.0550  -27.9700   29.3540 N.am      6 SEP2        0.0000 
     25 O          -3.8630  -25.3520   29.7900 O.2       1 ALC1        0.0000 
     26 O          -2.7110  -25.5960   29.4350 O.2       9 ALL1        0.0000 
     27 O          -5.0150  -25.1080   30.1450 O.2       5 ALP1        0.0000 
     28 CA         -2.3165  -21.7565   24.6695 C.3       4 GLC5        0.0000 
     29 CA         -1.4570  -22.3950   26.2260 C.3      12 GLL5        0.0000 
     30 CA         -3.1760  -21.1180   23.1130 C.3       8 GLP5        0.0000 
     31 NZ         -0.2240  -19.0390   25.9170 N.4       3 LYC4        0.0000 
     32 NZ         -0.5640  -19.4020   27.2280 N.4      11 LYL4        0.0000 
     33 NZ         -0.4890  -17.5110   24.5220 N.4       7 LYP4        0.0000 
     34 N          -1.0300  -18.3145   26.2815 N.am      2 SEC2        0.0000 
     35 N          -0.5640  -19.4020   27.2280 N.am     10 SEL2        0.0000 
     36 N          -1.4960  -17.2270   25.3350 N.am      6 SEP2        0.0000 
     37 N          -0.2240  -19.0390   25.9170 N.am      2 SEC2        0.0000 
     38 N           0.1160  -18.6760   24.6060 N.am      6 SEP2        0.0000 
     39 N           0.5070  -18.7960   27.4695 N.am      2 SEC2        0.0000 
     40 N           1.5780  -18.1900   27.7110 N.am      6 SEP2        0.0000 
     41 NZ         -2.1660  -18.5745   25.7805 N.4       3 LYC4        0.0000 
     42 NZ         -2.8360  -19.9220   26.2260 N.4      11 LYL4        0.0000 
     43 N          -2.1660  -18.5745   25.7805 N.am      2 SEC2        0.0000 
     44 N          -2.8360  -19.9220   26.2260 N.am     10 SEL2        0.0000 
     45 N          -3.4815  -20.4150   29.0085 N.am      2 SEC2        0.0000 
     46 N          -2.4310  -19.7280   28.7980 N.am     10 SEL2        0.0000 
     47 N          -4.5320  -21.1020   29.2190 N.am      6 SEP2        0.0000 
     48 CA          2.4115  -23.5877   28.6765 C.3       4 GLC5        0.0000 
     49 CA          1.7270  -24.6803   31.9520 C.3       4 GLC5        0.0000 
     50 CA          2.2710  -24.3670   30.4470 C.3      12 GLL5        0.0000 
     51 CA          1.5790  -24.6120   33.8710 C.3       8 GLP5        0.0000 
     52 CA         -3.3205  -23.1578   29.1958 C.3       4 GLC5        0.0000 
     53 CA         -2.0410  -24.5770   28.6840 C.3      12 GLL5        0.0000 
     54 CA         -4.2810  -21.8440   30.3860 C.3       8 GLP5        0.0000 
@<TRIPOS>BOND
@<TRIPOS>SUBSTRUCTURE
     1 ALC1        6 GROUP        1 X    ALC  0     ROOT ALC X 1
     2 SEC2        1 GROUP        1 X    SEC  0     **** SEC X 2
     3 LYC4       31 GROUP        1 X    LYC  0     **** LYC X 4
     4 GLC5        9 GROUP        1 X    GLC  0     **** GLC X 6
     5 ALP1        8 GROUP        1 Y    ALP  0     ROOT ALP Y 8
     6 SEP2        3 GROUP        1 Y    SEP  0     **** SEP Y 9
     7 LYP4       33 GROUP        1 Y    LYP  0     **** LYP Y 11
     8 GLP5       11 GROUP        1 Y    GLP  0     **** GLP Y 13
     9 ALL1        7 GROUP        1 Z    ALL  0     ROOT ALL Z 15
    10 SEL2        2 GROUP        1 Z    SEL  0     **** SEL Z 16
    11 LYL4       32 GROUP        1 Z    LYL  0     **** LYL Z 18
    12 GLL5       10 GROUP        1 Z    GLL  0     **** GLL Z 20
@<TRIPOS>SET

