#    Name: 2qre_AMZ_2_ligand
#    Modification time : Mon Mar 24 22:38:01 2014

@<TRIPOS>MOLECULE
2qre_AMZ_2_ligand
   35    36     1     0     0
SMALL
NO_CHARGES


@<TRIPOS>ATOM
      1 O5          3.9970  -25.9220   30.6110 O.2       1 AMZ1001     0.0000 
      2 C6          3.5240  -24.8840   31.0560 C.2       1 AMZ1001     0.0000 
      3 N2          4.0860  -24.1910   32.0540 N.am      1 AMZ1001     0.0000 
      4 C3A         2.2710  -24.3670   30.4470 C.2       1 AMZ1001     0.0000 
      5 C7A         1.4790  -25.1300   29.6190 C.2       1 AMZ1001     0.0000 
      6 N3          1.7310  -26.4250   29.2660 N.pl3     1 AMZ1001     0.0000 
      7 N1          1.6650  -23.1600   30.5310 N.2       1 AMZ1001     0.0000 
      8 C5          0.5380  -23.2340   29.7640 C.2       1 AMZ1001     0.0000 
      9 N           0.4210  -24.4590   29.2090 N.pl3     1 AMZ1001     0.0000 
     10 C1         -0.6230  -24.9720   28.2990 C.3       1 AMZ1001     0.0000 
     11 C2         -2.0410  -24.5770   28.6840 C.3       1 AMZ1001     0.0000 
     12 C3         -2.6790  -24.3660   27.3270 C.3       1 AMZ1001     0.0000 
     13 O2         -3.1700  -25.6050   26.8060 O.3       1 AMZ1001     0.0000 
     14 O1         -2.7110  -25.5960   29.4350 O.3       1 AMZ1001     0.0000 
     15 O          -0.3620  -24.4240   27.0080 O.3       1 AMZ1001     0.0000 
     16 C          -1.5500  -23.9190   26.4170 C.3       1 AMZ1001     0.0000 
     17 C4         -1.4570  -22.3950   26.2260 C.3       1 AMZ1001     0.0000 
     18 O3         -1.6250  -21.6330   27.4290 O.3       1 AMZ1001     0.0000 
     19 P          -1.9050  -20.0470   27.4130 P.3       1 AMZ1001     0.0000 
     20 OP1        -0.5640  -19.4020   27.2280 O.co2     1 AMZ1001     0.0000 
     21 O4         -2.8360  -19.9220   26.2260 O.co2     1 AMZ1001     0.0000 
     22 OP2        -2.4310  -19.7280   28.7980 O.co2     1 AMZ1001     0.0000 
     23 H           4.9565  -24.5427   32.3982 H         1 AMZ1001     0.0000 
     24 H           3.5849  -23.3838   32.3659 H         1 AMZ1001     0.0000 
     25 H           2.6947  -26.6857   29.2080 H         1 AMZ1001     0.0000 
     26 H           0.9297  -26.9988   29.0965 H         1 AMZ1001     0.0000 
     27 H          -0.0912  -22.4977   29.6394 H         1 AMZ1001     0.0000 
     28 H          -0.5695  -26.0513   28.2511 H         1 AMZ1001     0.0000 
     29 H          -1.9968  -23.6351   29.1763 H         1 AMZ1001     0.0000 
     30 H          -3.4001  -23.6140   27.3774 H         1 AMZ1001     0.0000 
     31 H          -1.7039  -24.3801   25.4444 H         1 AMZ1001     0.0000 
     32 H          -2.2181  -22.1142   25.4615 H         1 AMZ1001     0.0000 
     33 H          -0.4712  -22.1846   25.7501 H         1 AMZ1001     0.0000 
     34 H          -4.0900  -25.6991   27.1864 H         1 AMZ1001     0.0000 
     35 H          -3.3383  -25.1029   30.0378 H         1 AMZ1001     0.0000 
@<TRIPOS>BOND
     1    2    1 2    
     2    3    2 am   
     3    4    2 1    
     4   23    3 1    
     5   24    3 1    
     6    5    4 2    
     7    7    4 1    
     8    6    5 1    
     9    9    5 1    
    10   25    6 1    
    11   26    6 1    
    12    8    7 2    
    13    9    8 1    
    14   27    8 1    
    15   10    9 1    
    16   11   10 1    
    17   15   10 1    
    18   28   10 1    
    19   12   11 1    
    20   14   11 1    
    21   29   11 1    
    22   13   12 1    
    23   16   12 1    
    24   30   12 1    
    25   34   13 1    
    26   35   14 1    
    27   16   15 1    
    28   17   16 1    
    29   31   16 1    
    30   18   17 1    
    31   32   17 1    
    32   33   17 1    
    33   19   18 1    
    34   20   19 ar   
    35   21   19 ar   
    36   22   19 ar   
@<TRIPOS>SUBSTRUCTURE
     1 AMZ1001     1 GROUP   
@<TRIPOS>SET

