#    Name: 4ho5_DAU_4_INTS_M
#    Modification time : Tue Mar 25 01:32:08 2014

@<TRIPOS>MOLECULE
4ho5_DAU_4_INTS_M
   52     0     9     0     0
SMALL
NO_CHARGES


@<TRIPOS>ATOM
      1 CA         34.0450   -1.8645   10.1420 C.3       3 GLC5        0.0000 
      2 CA         35.1570   -3.1820    8.7890 C.3       9 GLL5        0.0000 
      3 CA         32.9330   -0.5470   11.4950 C.3       6 GLP5        0.0000 
      4 N          35.0680   -2.6390   13.6015 N.am      2 SEC2        0.0000 
      5 N          35.5990   -2.6630   12.3120 N.am      8 SEL2        0.0000 
      6 N          34.5370   -2.6150   14.8910 N.am      5 SEP2        0.0000 
      7 N          36.4430   -1.6100   11.9355 N.am      2 SEC2        0.0000 
      8 N          37.2870   -0.5570   11.5590 N.am      5 SEP2        0.0000 
      9 N          38.5040   -4.0010   11.7015 N.am      2 SEC2        0.0000 
     10 N          37.1560   -4.6040   11.5750 N.am      8 SEL2        0.0000 
     11 N          39.8520   -3.3980   11.8280 N.am      5 SEP2        0.0000 
     12 N          39.4615   -7.5155   11.3445 N.am      2 SEC2        0.0000 
     13 N          38.4420   -6.6840   11.2870 N.am      8 SEL2        0.0000 
     14 N          40.4810   -8.3470   11.4020 N.am      5 SEP2        0.0000 
     15 N          38.1650   -8.2295   11.2720 N.am      2 SEC2        0.0000 
     16 N          37.8880   -9.7750   11.2570 N.am      5 SEP2        0.0000 
     17 CA         37.7230   -3.9395   13.9135 C.3       3 GLC5        0.0000 
     18 CA         36.3960   -5.6640   14.0340 C.3       9 GLL5        0.0000 
     19 CA         39.0500   -2.2150   13.7930 C.3       6 GLP5        0.0000 
     20 CA         39.4700   -7.3540   14.8530 C.3       3 GLC5        0.0000 
     21 CA         37.6370   -7.4570   15.3450 C.3       9 GLL5        0.0000 
     22 CA         41.3030   -7.2510   14.3610 C.3       6 GLP5        0.0000 
     23 N          38.8080   -6.2005   17.2320 N.am      2 SEC2        0.0000 
     24 N          38.0960   -7.4260   16.6840 N.am      8 SEL2        0.0000 
     25 N          39.5200   -4.9750   17.7800 N.am      5 SEP2        0.0000 
     26 CA         35.3505   -7.5540   17.1210 C.3       3 GLC5        0.0000 
     27 CA         35.6220   -8.6330   15.6570 C.3       9 GLL5        0.0000 
     28 CA         35.0790   -6.4750   18.5850 C.3       6 GLP5        0.0000 
     29 CA         35.5710  -10.8515   14.0475 C.3       3 GLC5        0.0000 
     30 CA         34.3010   -9.3100   13.7500 C.3       9 GLL5        0.0000 
     31 CA         36.8410  -12.3930   14.3450 C.3       6 GLP5        0.0000 
     32 CA         31.4970  -10.8430   11.0590 C.3       3 GLC5        0.0000 
     33 CA         33.0220   -9.9290   11.6710 C.3       9 GLL5        0.0000 
     34 CA         29.9720  -11.7570   10.4470 C.3       6 GLP5        0.0000 
     35 N          33.3505  -11.1005   18.2200 N.am      2 SEC2        0.0000 
     36 N          33.9740  -10.4290   17.0780 N.am      8 SEL2        0.0000 
     37 N          32.7270  -11.7720   19.3620 N.am      5 SEP2        0.0000 
     38 O          31.6730  -11.3350   16.1070 O.2       1 ALC1        0.0000 
     39 O          32.7370  -10.9420   15.2990 O.2       7 ALL1        0.0000 
     40 O          30.6090  -11.7280   16.9150 O.2       4 ALP1        0.0000 
     41 CA         34.4857   -5.6190   14.3582 C.3       3 GLC5        0.0000 
     42 CA         36.4530   -6.4780   15.3070 C.3       9 GLL5        0.0000 
     43 CA         32.5470   -5.1670   14.0460 C.3       6 GLP5        0.0000 
     44 CA         36.0838   -4.2890   15.1713 C.3       3 GLC5        0.0000 
     45 CA         35.7430   -2.5070   15.6720 C.3       6 GLP5        0.0000 
     46 CA         36.0620   -6.7212   16.9555 C.3       3 GLC5        0.0000 
     47 CA         36.5845  -10.5607   14.8593 C.3       3 GLC5        0.0000 
     48 CA         34.4312  -11.5207   12.2918 C.3       3 GLC5        0.0000 
     49 CA         33.2590  -10.0460   13.1900 C.3       9 GLL5        0.0000 
     50 CA         35.7220  -13.0540   12.1530 C.3       6 GLP5        0.0000 
     51 CA         32.6235   -8.0832   13.0262 C.3       3 GLC5        0.0000 
     52 CA         31.8460   -6.3630   13.4820 C.3       6 GLP5        0.0000 
@<TRIPOS>BOND
@<TRIPOS>SUBSTRUCTURE
     1 ALC1       38 GROUP        1 X    ALC  0     ROOT ALC X 1
     2 SEC2        4 GROUP        1 X    SEC  0     **** SEC X 2
     3 GLC5        1 GROUP        1 X    GLC  0     **** GLC X 6
     4 ALP1       40 GROUP        1 Y    ALP  0     ROOT ALP Y 8
     5 SEP2        6 GROUP        1 Y    SEP  0     **** SEP Y 9
     6 GLP5        3 GROUP        1 Y    GLP  0     **** GLP Y 13
     7 ALL1       39 GROUP        1 Z    ALL  0     ROOT ALL Z 15
     8 SEL2        5 GROUP        1 Z    SEL  0     **** SEL Z 16
     9 GLL5        2 GROUP        1 Z    GLL  0     **** GLL Z 20
@<TRIPOS>SET

