#    Name: 4ho5_DAU_4_ligand
#    Modification time : Tue Mar 25 01:32:08 2014

@<TRIPOS>MOLECULE
4ho5_DAU_4_ligand
   60    62     1     0     0
SMALL
NO_CHARGES


@<TRIPOS>ATOM
      1 O6         36.1160   -0.6630    5.6980 O.3       1 DAU301      0.0000 
      2 C6         37.1500   -0.7480    6.6800 C.3       1 DAU301      0.0000 
      3 C5         36.8480   -1.8700    7.6930 C.3       1 DAU301      0.0000 
      4 O5         35.4290   -2.0400    7.9470 O.3       1 DAU301      0.0000 
      5 C4         37.5820   -3.1840    7.3520 C.3       1 DAU301      0.0000 
      6 O4         38.5770   -3.4530    8.3530 O.3       1 DAU301      0.0000 
      7 C3         36.6770   -4.4190    7.1310 C.3       1 DAU301      0.0000 
      8 O3         36.4500   -4.5800    5.7180 O.3       1 DAU301      0.0000 
      9 C2         35.3200   -4.3990    7.8730 C.3       1 DAU301      0.0000 
     10 O2         35.0950   -5.6300    8.5780 O.3       1 DAU301      0.0000 
     11 C1         35.1570   -3.1820    8.7890 C.3       1 DAU301      0.0000 
     12 O1         36.0930   -3.2110    9.9040 O.3       1 DAU301      0.0000 
     13 P2         35.7950   -3.8360   11.3880 P.3       1 DAU301      0.0000 
     14 O3P        35.5990   -2.6630   12.3120 O.co2     1 DAU301      0.0000 
     15 O4P        34.7330   -4.9010   11.2000 O.co2     1 DAU301      0.0000 
     16 OPP        37.1560   -4.6040   11.5750 O.3       1 DAU301      0.0000 
     17 P          37.0120   -6.2430   11.5880 P.3       1 DAU301      0.0000 
     18 O1P        35.8930   -6.8490   10.7550 O.co2     1 DAU301      0.0000 
     19 O2P        38.4420   -6.6840   11.2870 O.co2     1 DAU301      0.0000 
     20 O5'        36.4390   -6.6180   13.0530 O.3       1 DAU301      0.0000 
     21 C5'        36.3960   -5.6640   14.0340 C.3       1 DAU301      0.0000 
     22 C4'        36.4530   -6.4780   15.3070 C.3       1 DAU301      0.0000 
     23 O4'        35.2750   -7.2840   15.3710 O.3       1 DAU301      0.0000 
     24 C3'        37.6370   -7.4570   15.3450 C.3       1 DAU301      0.0000 
     25 O3'        38.0960   -7.4260   16.6840 O.3       1 DAU301      0.0000 
     26 C2'        37.0340   -8.8240   15.0900 C.3       1 DAU301      0.0000 
     27 C1'        35.6220   -8.6330   15.6570 C.3       1 DAU301      0.0000 
     28 N11        34.5620   -9.4590   15.0610 N.am      1 DAU301      0.0000 
     29 C61        34.3010   -9.3100   13.7500 C.2       1 DAU301      0.0000 
     30 C51        33.2590  -10.0460   13.1900 C.2       1 DAU301      0.0000 
     31 C5A        33.0220   -9.9290   11.6710 C.3       1 DAU301      0.0000 
     32 C21        33.7580  -10.2410   15.8370 C.2       1 DAU301      0.0000 
     33 O21        33.9740  -10.4290   17.0780 O.2       1 DAU301      0.0000 
     34 N31        32.7370  -10.9420   15.2990 N.am      1 DAU301      0.0000 
     35 C41        32.4720  -10.8510   13.9800 C.2       1 DAU301      0.0000 
     36 O41        31.4610  -11.4720   13.5390 O.2       1 DAU301      0.0000 
     37 H          37.2530    0.1869    7.2479 H         1 DAU301      0.0000 
     38 H          38.1266   -0.9692    6.2279 H         1 DAU301      0.0000 
     39 H          37.3289   -1.5141    8.6671 H         1 DAU301      0.0000 
     40 H          38.1102   -3.0026    6.3814 H         1 DAU301      0.0000 
     41 H          37.2366   -5.2989    7.4979 H         1 DAU301      0.0000 
     42 H          34.5402   -4.2974    7.0753 H         1 DAU301      0.0000 
     43 H          34.1422   -3.1578    9.1248 H         1 DAU301      0.0000 
     44 H          35.4775   -5.0965   14.0470 H         1 DAU301      0.0000 
     45 H          37.2468   -4.9992   14.0299 H         1 DAU301      0.0000 
     46 H          36.5162   -5.8318   16.1527 H         1 DAU301      0.0000 
     47 H          38.3248   -7.2077   14.6383 H         1 DAU301      0.0000 
     48 H          37.5414   -9.5567   15.6465 H         1 DAU301      0.0000 
     49 H          36.9772   -9.0115   14.0577 H         1 DAU301      0.0000 
     50 H          35.6600   -8.7725   16.7235 H         1 DAU301      0.0000 
     51 H          34.8444   -8.6739   13.1562 H         1 DAU301      0.0000 
     52 H          32.1516  -11.5560   15.9067 H         1 DAU301      0.0000 
     53 H          33.8238  -10.2160   11.1468 H         1 DAU301      0.0000 
     54 H          32.2562  -10.4971   11.3698 H         1 DAU301      0.0000 
     55 H          32.8148   -8.9894   11.3987 H         1 DAU301      0.0000 
     56 H          35.2896   -0.4324    6.2118 H         1 DAU301      0.0000 
     57 H          38.0592   -3.6750    9.1792 H         1 DAU301      0.0000 
     58 H          36.3300   -3.6511    5.3678 H         1 DAU301      0.0000 
     59 H          34.9988   -5.3648    9.5374 H         1 DAU301      0.0000 
     60 H          38.2711   -8.3819   16.9196 H         1 DAU301      0.0000 
@<TRIPOS>BOND
     1    2    1 1    
     2   56    1 1    
     3    3    2 1    
     4   37    2 1    
     5   38    2 1    
     6    4    3 1    
     7    5    3 1    
     8   39    3 1    
     9   11    4 1    
    10    6    5 1    
    11    7    5 1    
    12   40    5 1    
    13   57    6 1    
    14    8    7 1    
    15    9    7 1    
    16   41    7 1    
    17   58    8 1    
    18   10    9 1    
    19   11    9 1    
    20   42    9 1    
    21   59   10 1    
    22   12   11 1    
    23   43   11 1    
    24   13   12 1    
    25   14   13 ar   
    26   15   13 ar   
    27   16   13 1    
    28   17   16 1    
    29   18   17 ar   
    30   19   17 ar   
    31   20   17 1    
    32   21   20 1    
    33   22   21 1    
    34   44   21 1    
    35   45   21 1    
    36   23   22 1    
    37   24   22 1    
    38   46   22 1    
    39   27   23 1    
    40   25   24 1    
    41   26   24 1    
    42   47   24 1    
    43   60   25 1    
    44   27   26 1    
    45   48   26 1    
    46   49   26 1    
    47   28   27 1    
    48   50   27 1    
    49   29   28 1    
    50   32   28 1    
    51   30   29 2    
    52   51   29 1    
    53   31   30 1    
    54   35   30 1    
    55   53   31 1    
    56   54   31 1    
    57   55   31 1    
    58   33   32 2    
    59   34   32 1    
    60   35   34 1    
    61   52   34 1    
    62   36   35 2    
@<TRIPOS>SUBSTRUCTURE
     1 DAU301      1 GROUP   
@<TRIPOS>SET

