#    Name: 4f9y_LM3_3_INTS_M
#    Modification time : Mon Mar 24 19:10:15 2014

@<TRIPOS>MOLECULE
4f9y_LM3_3_INTS_M
   73     0     6     0     0
SMALL
NO_CHARGES


@<TRIPOS>ATOM
      1 CA          1.2530    2.4340   22.2315 C.3       2 GLC5        0.0000 
      2 CA          0.5200    3.7940   23.3790 C.3       6 GLL5        0.0000 
      3 CA          1.9860    1.0740   21.0840 C.3       4 GLP5        0.0000 
      4 N          -3.3670    4.0315   18.6130 N.am      1 SEC2        0.0000 
      5 N          -2.8610    3.1610   19.9150 N.am      5 SEL2        0.0000 
      6 N          -3.8730    4.9020   17.3110 N.am      3 SEP2        0.0000 
      7 CA         -5.1290    0.4960   23.2105 C.3       2 GLC5        0.0000 
      8 CA         -3.1130   -0.4700   23.0750 C.3       6 GLL5        0.0000 
      9 CA         -7.1450    1.4620   23.3460 C.3       4 GLP5        0.0000 
     10 CA         -4.7635   -3.0455   24.1515 C.3       2 GLC5        0.0000 
     11 CA         -3.3350   -1.8000   23.4020 C.3       6 GLL5        0.0000 
     12 CA         -6.1920   -4.2910   24.9010 C.3       4 GLP5        0.0000 
     13 CA         -1.9170   -3.4625   23.1365 C.3       2 GLC5        0.0000 
     14 CA         -0.4990   -5.1250   22.8710 C.3       4 GLP5        0.0000 
     15 N          -3.0995   -4.2085   22.8140 N.am      1 SEC2        0.0000 
     16 N          -3.3100   -2.7890   22.4330 N.am      5 SEL2        0.0000 
     17 N          -2.8890   -5.6280   23.1950 N.am      3 SEP2        0.0000 
     18 CA         -4.1230   -4.2905   21.7855 C.3       2 GLC5        0.0000 
     19 CA         -3.0640   -2.4590   21.1040 C.3       6 GLL5        0.0000 
     20 CA         -5.1820   -6.1220   22.4670 C.3       4 GLP5        0.0000 
     21 CA         -1.7800   -3.9615   21.2390 C.3       2 GLC5        0.0000 
     22 CA         -0.4960   -5.4640   21.3740 C.3       4 GLP5        0.0000 
     23 CA         -4.7225   -1.4100   15.9915 C.3       2 GLC5        0.0000 
     24 CA         -4.4140    0.6240   15.4120 C.3       6 GLL5        0.0000 
     25 CA         -5.0310   -3.4440   16.5710 C.3       4 GLP5        0.0000 
     26 CA         -7.9955   -0.9250   17.1250 C.3       2 GLC5        0.0000 
     27 CA         -6.5810    0.2790   18.2800 C.3       6 GLL5        0.0000 
     28 CA         -9.4100   -2.1290   15.9700 C.3       4 GLP5        0.0000 
     29 CA          0.3008    1.8432   21.4240 C.3       2 GLC5        0.0000 
     30 CA         -1.5530    1.9650   21.9730 C.3       6 GLL5        0.0000 
     31 CA         -5.0873    2.6437   21.1430 C.3       2 GLC5        0.0000 
     32 CA         -3.2060    1.8740   20.2530 C.3       6 GLL5        0.0000 
     33 CA         -6.4060    3.7000   22.4150 C.3       4 GLP5        0.0000 
     34 CA         -1.0928    0.7548   20.0230 C.3       2 GLC5        0.0000 
     35 CA          0.7070   -0.0590   19.2520 C.3       4 GLP5        0.0000 
     36 CA         -1.0750   -0.3468   20.2620 C.3       2 GLC5        0.0000 
     37 CA         -2.8760   -0.1360   21.7570 C.3       6 GLL5        0.0000 
     38 CA         -4.9439   -1.6568   22.2700 C.3       2 GLC5        0.0000 
     39 CA         -6.7230   -2.2620   21.6310 C.3       4 GLP5        0.0000 
     40 CA         -4.8370   -2.0290   21.2882 C.3       2 GLC5        0.0000 
     41 CA         -1.5765   -2.4955   19.3762 C.3       2 GLC5        0.0000 
     42 CA         -0.2020   -3.1950   17.8070 C.3       4 GLP5        0.0000 
     43 CA         -3.8330   -2.3145   19.4547 C.3       2 GLC5        0.0000 
     44 CA         -4.7150   -2.8330   17.9640 C.3       4 GLP5        0.0000 
     45 CA         -4.8640    3.0080   18.0870 C.3       2 GLC5        0.0000 
     46 CA         -4.3310    1.3010   19.4890 C.3       6 GLL5        0.0000 
     47 CA         -5.3990    4.8150   17.3620 C.3       4 GLP5        0.0000 
     48 CA         -4.5220   -0.8160   18.3880 C.3       2 GLC5        0.0000 
     49 CA         -4.3270    1.1010   18.1350 C.3       6 GLL5        0.0000 
     50 CA         -4.3260    3.0428   17.0165 C.3       2 GLC5        0.0000 
     51 CA         -3.2290    1.3990   17.3530 C.3       6 GLL5        0.0000 
     52 CA         -3.8133    1.8155   14.0587 C.3       2 GLC5        0.0000 
     53 CA         -3.2770    1.1420   15.9890 C.3       6 GLL5        0.0000 
     54 CA         -3.7810    2.7480   12.4170 C.3       4 GLP5        0.0000 
     55 CA         -2.5412   -0.3134   15.8718 C.3       2 GLC5        0.0000 
     56 CA         -1.2490   -1.5740   15.7020 C.3       4 GLP5        0.0000 
     57 CA         -5.7950   -0.0250   14.0212 C.3       2 GLC5        0.0000 
     58 CA         -6.6170   -0.5270   12.2480 C.3       4 GLP5        0.0000 
     59 CA         -5.1100   -1.1898   17.4102 C.3       2 GLC5        0.0000 
     60 CA         -5.5320    0.3300   16.1770 C.3       6 GLL5        0.0000 
     61 CA         -6.9817    2.0295   18.3240 C.3       2 GLC5        0.0000 
     62 CA         -5.4780    0.5770   17.5360 C.3       6 GLL5        0.0000 
     63 CA         -7.9340    3.6310   18.7400 C.3       4 GLP5        0.0000 
     64 CA         -6.7708    1.2970   15.5826 C.3       2 GLC5        0.0000 
     65 CA         -8.3160    2.0670   14.5000 C.3       4 GLP5        0.0000 
     66 CA         -8.5605    0.1275   19.4385 C.3       2 GLC5        0.0000 
     67 CA         -6.5930    0.5070   19.6260 C.3       6 GLL5        0.0000 
     68 CA        -10.5340   -0.1380   19.9240 C.3       4 GLP5        0.0000 
     69 CA         -5.6510   -1.2200   18.4585 C.3       2 GLC5        0.0000 
     70 CA         -6.5888    1.1102   21.6340 C.3       2 GLC5        0.0000 
     71 CA         -6.9832    2.1947   19.3310 C.3       2 GLC5        0.0000 
     72 CA         -5.4720    1.0100   20.2180 C.3       6 GLL5        0.0000 
     73 CA         -6.3762   -0.7802   20.6083 C.3       2 GLC5        0.0000 
@<TRIPOS>BOND
@<TRIPOS>SUBSTRUCTURE
     1 SEC2        4 GROUP        1 X    SEC  0     ROOT SEC X 2
     2 GLC5        1 GROUP        1 X    GLC  0     **** GLC X 6
     3 SEP2        6 GROUP        1 Y    SEP  0     ROOT SEP Y 9
     4 GLP5        3 GROUP        1 Y    GLP  0     **** GLP Y 13
     5 SEL2        5 GROUP        1 Z    SEL  0     ROOT SEL Z 16
     6 GLL5        2 GROUP        1 Z    GLL  0     **** GLL Z 20
@<TRIPOS>SET

