#    Name: 4f9y_LM3_3_ligand
#    Modification time : Mon Mar 24 19:10:15 2014

@<TRIPOS>MOLECULE
4f9y_LM3_3_ligand
   43    46     1     0     0
SMALL
NO_CHARGES


@<TRIPOS>ATOM
      1 C3          0.2430    5.3280   21.5170 C.3       1 LM3403      0.0000 
      2 N2         -0.2050    4.0720   22.1340 N.pl3     1 LM3403      0.0000 
      3 C1          0.5200    3.7940   23.3790 C.3       1 LM3403      0.0000 
      4 C4         -1.2160    3.2600   21.5550 C.ar      1 LM3403      0.0000 
      5 N9         -1.9120    3.8000   20.5110 N.ar      1 LM3403      0.0000 
      6 N8         -2.8610    3.1610   19.9150 N.ar      1 LM3403      0.0000 
      7 C7         -3.2060    1.8740   20.2530 C.ar      1 LM3403      0.0000 
      8 C6         -2.5790    1.2630   21.3350 C.ar      1 LM3403      0.0000 
      9 C10        -2.8760   -0.1360   21.7570 C.ar      1 LM3403      0.0000 
     10 C21        -3.1130   -0.4700   23.0750 C.ar      1 LM3403      0.0000 
     11 C20        -3.3350   -1.8000   23.4020 C.ar      1 LM3403      0.0000 
     12 N19        -3.3100   -2.7890   22.4330 N.ar      1 LM3403      0.0000 
     13 C18        -3.0640   -2.4590   21.1040 C.ar      1 LM3403      0.0000 
     14 C17        -2.8380   -1.1330   20.7870 C.ar      1 LM3403      0.0000 
     15 C5         -1.5530    1.9650   21.9730 C.ar      1 LM3403      0.0000 
     16 C11        -4.3310    1.3010   19.4890 C.ar      1 LM3403      0.0000 
     17 C16        -4.3270    1.1010   18.1350 C.ar      1 LM3403      0.0000 
     18 C25        -3.2290    1.3990   17.3530 C.ar      1 LM3403      0.0000 
     19 C24        -3.2770    1.1420   15.9890 C.ar      1 LM3403      0.0000 
     20 C23        -4.4140    0.6240   15.4120 C.ar      1 LM3403      0.0000 
     21 C22        -5.5320    0.3300   16.1770 C.ar      1 LM3403      0.0000 
     22 C15        -5.4780    0.5770   17.5360 C.ar      1 LM3403      0.0000 
     23 C14        -6.5810    0.2790   18.2800 C.ar      1 LM3403      0.0000 
     24 C13        -6.5930    0.5070   19.6260 C.ar      1 LM3403      0.0000 
     25 C12        -5.4720    1.0100   20.2180 C.ar      1 LM3403      0.0000 
     26 H          -3.1255    0.2498   23.8024 H         1 LM3403      0.0000 
     27 H          -3.5228   -2.0568   24.3896 H         1 LM3403      0.0000 
     28 H          -3.0517   -3.1804   20.3852 H         1 LM3403      0.0000 
     29 H          -2.6344   -0.8698   19.8013 H         1 LM3403      0.0000 
     30 H          -1.0422    1.5319   22.7521 H         1 LM3403      0.0000 
     31 H          -2.3858    1.8056   17.7709 H         1 LM3403      0.0000 
     32 H          -2.4460    1.3441   15.4050 H         1 LM3403      0.0000 
     33 H          -4.4392    0.4492   14.3889 H         1 LM3403      0.0000 
     34 H          -6.3699   -0.0576   15.7476 H         1 LM3403      0.0000 
     35 H          -7.4216   -0.1259   17.8185 H         1 LM3403      0.0000 
     36 H          -7.4334    0.3027   20.1835 H         1 LM3403      0.0000 
     37 H          -5.4648    1.1838   21.2493 H         1 LM3403      0.0000 
     38 H           1.2174    5.3050   21.2933 H         1 LM3403      0.0000 
     39 H          -0.2483    5.5204   20.6675 H         1 LM3403      0.0000 
     40 H           0.0997    6.1110   22.1223 H         1 LM3403      0.0000 
     41 H           1.5048    3.7137   23.2253 H         1 LM3403      0.0000 
     42 H           0.3871    4.5181   24.0558 H         1 LM3403      0.0000 
     43 H           0.2186    2.9391   23.8013 H         1 LM3403      0.0000 
@<TRIPOS>BOND
     1    2    1 1    
     2   38    1 1    
     3   39    1 1    
     4   40    1 1    
     5    3    2 1    
     6    4    2 1    
     7   41    3 1    
     8   42    3 1    
     9   43    3 1    
    10    5    4 ar   
    11   15    4 ar   
    12    6    5 ar   
    13    7    6 ar   
    14    8    7 ar   
    15   16    7 1    
    16    9    8 1    
    17   15    8 ar   
    18   10    9 ar   
    19   14    9 ar   
    20   11   10 ar   
    21   26   10 1    
    22   12   11 ar   
    23   27   11 1    
    24   13   12 ar   
    25   14   13 ar   
    26   28   13 1    
    27   29   14 1    
    28   30   15 1    
    29   17   16 ar   
    30   25   16 ar   
    31   18   17 ar   
    32   22   17 ar   
    33   19   18 ar   
    34   31   18 1    
    35   20   19 ar   
    36   32   19 1    
    37   21   20 ar   
    38   33   20 1    
    39   22   21 ar   
    40   34   21 1    
    41   23   22 ar   
    42   24   23 ar   
    43   35   23 1    
    44   25   24 ar   
    45   36   24 1    
    46   37   25 1    
@<TRIPOS>SUBSTRUCTURE
     1 LM3403      1 GROUP   
@<TRIPOS>SET

