#    Name: 2wo9_068_3_INTS_M
#    Modification time : Tue Mar 25 04:31:15 2014

@<TRIPOS>MOLECULE
2wo9_068_3_INTS_M
   57     0     9     0     0
SMALL
NO_CHARGES


@<TRIPOS>ATOM
      1 CA         49.3695   38.8085   33.7020 C.3       3 GLC5        0.0000 
      2 CA         47.2570   38.8100   34.1760 C.3       9 GLL5        0.0000 
      3 CA         51.4820   38.8070   33.2280 C.3       6 GLP5        0.0000 
      4 CA         45.3860   38.6120   33.3750 C.3       3 GLC5        0.0000 
      5 CA         43.5150   38.4140   32.5740 C.3       6 GLP5        0.0000 
      6 CA         45.5245   40.1065   34.5785 C.3       3 GLC5        0.0000 
      7 CA         43.7920   41.4030   34.9810 C.3       6 GLP5        0.0000 
      8 CA         48.7950   43.4315   33.8120 C.3       3 GLC5        0.0000 
      9 CA         49.2940   41.7450   32.6940 C.3       9 GLL5        0.0000 
     10 CA         48.2960   45.1180   34.9300 C.3       6 GLP5        0.0000 
     11 CA         49.3030   44.0655   32.0320 C.3       3 GLC5        0.0000 
     12 CA         49.7970   42.1180   31.4490 C.3       9 GLL5        0.0000 
     13 CA         48.8090   46.0130   32.6150 C.3       6 GLP5        0.0000 
     14 CA         46.0850   39.9955   31.2095 C.3       3 GLC5        0.0000 
     15 CA         48.2050   39.8650   31.6510 C.3       9 GLL5        0.0000 
     16 CA         43.9650   40.1260   30.7680 C.3       6 GLP5        0.0000 
     17 CA         50.0180   44.4865   24.3405 C.3       3 GLC5        0.0000 
     18 CA         51.5060   43.2160   25.0570 C.3       9 GLL5        0.0000 
     19 CA         48.5300   45.7570   23.6240 C.3       6 GLP5        0.0000 
     20 N          51.8480   44.6240   21.3515 N.am      1 SEC2        0.0000 
     21 N          52.0370   43.4200   22.1130 N.am      7 SEL2        0.0000 
     22 N          51.6590   45.8280   20.5900 N.am      4 SEP2        0.0000 
     23 CA         53.8045   42.0080   20.1595 C.3       3 GLC5        0.0000 
     24 CA         54.1050   42.0510   22.2690 C.3       9 GLL5        0.0000 
     25 CA         53.5040   41.9650   18.0500 C.3       6 GLP5        0.0000 
     26 Zn         55.6110   40.6330   24.5885 Zn        2 ZIC7        0.0000 
     27 Zn         55.7270   41.8180   24.0330 Zn        8 ZIL7        0.0000 
     28 Zn         55.4950   39.4480   25.1440 Zn        5 ZIP7        0.0000 
     29 N          55.6120   43.0505   24.6390 N.am      1 SEC2        0.0000 
     30 N          55.7270   41.8180   24.0330 N.am      7 SEL2        0.0000 
     31 N          55.4970   44.2830   25.2450 N.am      4 SEP2        0.0000 
     32 Zn         55.1085   39.7400   24.2595 Zn        2 ZIC7        0.0000 
     33 Zn         54.7220   40.0320   23.3750 Zn        8 ZIL7        0.0000 
     34 CA         50.1835   39.9952   32.9883 C.3       3 GLC5        0.0000 
     35 CA         51.7283   42.1172   30.2420 C.3       3 GLC5        0.0000 
     36 CA         53.7920   42.4800   29.6140 C.3       6 GLP5        0.0000 
     37 CA         50.5733   40.2808   32.0490 C.3       3 GLC5        0.0000 
     38 CA         49.9740   39.4348   32.1303 C.3       3 GLC5        0.0000 
     39 CA         48.0297   41.3758   28.5443 C.3       3 GLC5        0.0000 
     40 CA         48.7270   40.2600   30.4140 C.3       9 GLL5        0.0000 
     41 CA         46.9300   41.9260   26.7360 C.3       6 GLP5        0.0000 
     42 CA         48.5588   42.2138   27.7765 C.3       3 GLC5        0.0000 
     43 CA         50.3090   43.1750   28.6830 C.3       9 GLL5        0.0000 
     44 CA         51.2665   44.9922   28.7645 C.3       3 GLC5        0.0000 
     45 CA         51.9960   46.5980   29.4670 C.3       6 GLP5        0.0000 
     46 CA         52.1341   42.7649   28.8715 C.3       3 GLC5        0.0000 
     47 CA         50.7650   43.5980   27.4410 C.3       9 GLL5        0.0000 
     48 CA         48.9852   43.2360   26.5145 C.3       3 GLC5        0.0000 
     49 CA         47.0890   43.3190   26.1160 C.3       6 GLP5        0.0000 
     50 CA         49.1893   39.9130   26.1613 C.3       3 GLC5        0.0000 
     51 CA         50.7390   41.3670   26.6390 C.3       9 GLL5        0.0000 
     52 CA         47.8710   38.6650   25.0580 C.3       6 GLP5        0.0000 
     53 CA         48.7188   41.5435   27.0003 C.3       3 GLC5        0.0000 
     54 CA         52.3469   41.6707   27.6984 C.3       3 GLC5        0.0000 
     55 CA         53.9410   41.4070   28.5720 C.3       6 GLP5        0.0000 
     56 CA         53.2640   42.0625   26.0095 C.3       3 GLC5        0.0000 
     57 CA         54.6060   41.3970   27.3860 C.3       6 GLP5        0.0000 
@<TRIPOS>BOND
@<TRIPOS>SUBSTRUCTURE
     1 SEC2       20 GROUP        1 X    SEC  0     ROOT SEC X 2
     2 ZIC7       26 GROUP        1 X    ZIC  0     **** ZIC X 5
     3 GLC5        1 GROUP        1 X    GLC  0     **** GLC X 6
     4 SEP2       22 GROUP        1 Y    SEP  0     ROOT SEP Y 9
     5 ZIP7       28 GROUP        1 Y    ZIP  0     **** ZIP Y 12
     6 GLP5        3 GROUP        1 Y    GLP  0     **** GLP Y 13
     7 SEL2       21 GROUP        1 Z    SEL  0     ROOT SEL Z 16
     8 ZIL7       27 GROUP        1 Z    ZIL  0     **** ZIL Z 19
     9 GLL5        2 GROUP        1 Z    GLL  0     **** GLL Z 20
@<TRIPOS>SET

