#    Name: 2wo9_068_3_ligand
#    Modification time : Tue Mar 25 04:31:15 2014

@<TRIPOS>MOLECULE
2wo9_068_3_ligand
   42    43     1     0     0
SMALL
NO_CHARGES


@<TRIPOS>ATOM
      1 C19        47.2570   38.8100   34.1760 C.3       1 0681272     0.0000 
      2 C1         47.9450   40.1760   34.1020 C.2       1 0681272     0.0000 
      3 O2         48.0490   40.8520   35.0800 O.2       1 0681272     0.0000 
      4 C14        48.4760   40.6220   32.8030 C.ar      1 0681272     0.0000 
      5 C15        49.2940   41.7450   32.6940 C.ar      1 0681272     0.0000 
      6 C16        49.7970   42.1180   31.4490 C.ar      1 0681272     0.0000 
      7 C13        48.2050   39.8650   31.6510 C.ar      1 0681272     0.0000 
      8 C12        48.7270   40.2600   30.4140 C.ar      1 0681272     0.0000 
      9 C11        49.5320   41.3910   30.2910 C.ar      1 0681272     0.0000 
     10 C8         50.0660   41.8280   28.9510 C.ar      1 0681272     0.0000 
     11 C9         50.3090   43.1750   28.6830 C.ar      1 0681272     0.0000 
     12 C10        50.7650   43.5980   27.4410 C.ar      1 0681272     0.0000 
     13 C7         50.2760   40.9550   27.8900 C.ar      1 0681272     0.0000 
     14 C6         50.7390   41.3670   26.6390 C.ar      1 0681272     0.0000 
     15 C5         50.9980   42.7080   26.3850 C.ar      1 0681272     0.0000 
     16 C4         51.5060   43.2160   25.0570 C.3       1 0681272     0.0000 
     17 C3         52.3380   42.2400   24.2090 C.3       1 0681272     0.0000 
     18 C2         53.0160   42.8920   22.9870 C.3       1 0681272     0.0000 
     19 O1         52.0370   43.4200   22.1130 O.3       1 0681272     0.0000 
     20 C17        54.1050   42.0510   22.2690 C.3       1 0681272     0.0000 
     21 C18        54.9220   41.2380   23.2900 C.2       1 0681272     0.0000 
     22 O19        55.7270   41.8180   24.0330 O.co2     1 0681272     0.0000 
     23 O20        54.7220   40.0320   23.3750 O.co2     1 0681272     0.0000 
     24 H          49.5253   42.2958   33.5282 H         1 0681272     0.0000 
     25 H          50.3931   42.9721   31.3824 H         1 0681272     0.0000 
     26 H          47.6244   39.0233   31.7189 H         1 0681272     0.0000 
     27 H          48.5084   39.6967   29.5714 H         1 0681272     0.0000 
     28 H          50.1444   43.8764   29.4313 H         1 0681272     0.0000 
     29 H          50.9418   44.6145   27.2842 H         1 0681272     0.0000 
     30 H          50.0771   39.9334   28.0341 H         1 0681272     0.0000 
     31 H          50.8896   40.6653   25.8967 H         1 0681272     0.0000 
     32 H          52.1184   44.1344   25.2272 H         1 0681272     0.0000 
     33 H          50.6393   43.5570   24.4405 H         1 0681272     0.0000 
     34 H          51.6859   41.4263   23.8590 H         1 0681272     0.0000 
     35 H          53.1138   41.7877   24.8441 H         1 0681272     0.0000 
     36 H          53.5859   43.7906   23.4292 H         1 0681272     0.0000 
     37 H          54.7661   42.7195   21.7299 H         1 0681272     0.0000 
     38 H          53.6235   41.3742   21.5728 H         1 0681272     0.0000 
     39 H          47.2386   38.3547   33.2858 H         1 0681272     0.0000 
     40 H          47.7226   38.1936   34.8110 H         1 0681272     0.0000 
     41 H          46.3091   38.8878   34.4850 H         1 0681272     0.0000 
     42 H          51.5494   42.6221   21.7585 H         1 0681272     0.0000 
@<TRIPOS>BOND
     1    2    1 1    
     2   39    1 1    
     3   40    1 1    
     4   41    1 1    
     5    3    2 2    
     6    4    2 1    
     7    5    4 ar   
     8    7    4 ar   
     9    6    5 ar   
    10   24    5 1    
    11    9    6 ar   
    12   25    6 1    
    13    8    7 ar   
    14   26    7 1    
    15    9    8 ar   
    16   27    8 1    
    17   10    9 1    
    18   11   10 ar   
    19   13   10 ar   
    20   12   11 ar   
    21   28   11 1    
    22   15   12 ar   
    23   29   12 1    
    24   14   13 ar   
    25   30   13 1    
    26   15   14 ar   
    27   31   14 1    
    28   16   15 1    
    29   17   16 1    
    30   32   16 1    
    31   33   16 1    
    32   18   17 1    
    33   34   17 1    
    34   35   17 1    
    35   19   18 1    
    36   20   18 1    
    37   36   18 1    
    38   42   19 1    
    39   21   20 1    
    40   37   20 1    
    41   38   20 1    
    42   22   21 ar   
    43   23   21 ar   
@<TRIPOS>SUBSTRUCTURE
     1 0681272     1 GROUP   
@<TRIPOS>SET

