#    Name: 3HDY_5_CAVITY_N1_6.mol2
#    Modification time : Mon Mar 10 22:26:10 2014

@<TRIPOS>MOLECULE
3HDY_5_CAVITY_N1_6.mol2
  156     0     6     0     0
SMALL
NO_CHARGES


@<TRIPOS>ATOM
      1 O          77.2741  -71.0610  -61.9496 O.2       2 ALA2        0.0000 
      2 N          76.0229  -70.3030  -61.6180 N.2       2 ALA2        0.0000 
      3 N          74.7717  -69.5450  -61.2863 N.2       2 ALA2        0.0000 
      4 O          77.7260  -73.0816  -62.4109 O.2       2 ALA2        0.0000 
      5 N          76.4748  -72.3236  -62.0793 N.2       2 ALA2        0.0000 
      6 N          75.2236  -71.5657  -61.7477 N.2       2 ALA2        0.0000 
      7 N          78.1779  -75.1022  -62.8723 N.2       2 ALA2        0.0000 
      8 N          76.9267  -74.3443  -62.5406 N.2       2 ALA2        0.0000 
      9 CA         75.6755  -73.5863  -62.2090 C.3       5 GLY6        0.0000 
     10 CA         74.4243  -72.8283  -61.8773 C.3       5 GLY6        0.0000 
     11 CA         76.1274  -75.6069  -62.6703 C.3       5 GLY6        0.0000 
     12 CA         74.8763  -74.8490  -62.3386 C.3       5 GLY6        0.0000 
     13 CA         73.6251  -74.0910  -62.0070 C.3       5 GLY6        0.0000 
     14 CA         75.3282  -76.8696  -62.7999 C.3       5 GLY6        0.0000 
     15 CA         74.0770  -76.1116  -62.4683 C.3       5 GLY6        0.0000 
     16 N          70.7199  -73.4562  -67.6335 N.2       2 ALA2        0.0000 
     17 CZ         72.4231  -76.2348  -68.4264 C.ar      4 PHE5        0.0000 
     18 OG         77.8843  -70.9643  -66.6526 O.2       1 SER1        0.0000 
     19 O          77.0851  -72.2270  -66.7823 O.2       2 ALA2        0.0000 
     20 O          75.8339  -71.4690  -66.4507 O.2       2 ALA2        0.0000 
     21 O          78.0980  -71.2492  -65.1955 O.2       2 ALA2        0.0000 
     22 OG         76.8468  -70.4912  -64.8639 O.2       1 SER1        0.0000 
     23 OG         74.3444  -68.9753  -64.2006 O.2       1 SER1        0.0000 
     24 NZ         73.0932  -68.2173  -63.8689 N.2       3 LYS4        0.0000 
     25 O          77.2987  -72.5119  -65.3252 O.2       2 ALA2        0.0000 
     26 DU         76.0475  -71.7539  -64.9935 H         6 CUB7        0.0000 
     27 O          74.7963  -70.9959  -64.6619 O.2       2 ALA2        0.0000 
     28 O          73.5451  -70.2379  -64.3302 O.2       2 ALA2        0.0000 
     29 N          76.4994  -73.7745  -65.4548 N.2       2 ALA2        0.0000 
     30 DU         75.2482  -73.0166  -65.1232 H         6 CUB7        0.0000 
     31 N          73.9970  -72.2586  -64.7916 N.2       2 ALA2        0.0000 
     32 N          76.9513  -75.7952  -65.9162 N.2       2 ALA2        0.0000 
     33 N          75.7001  -75.0372  -65.5845 N.2       2 ALA2        0.0000 
     34 DU         74.4489  -74.2792  -65.2529 H         6 CUB7        0.0000 
     35 N          73.1977  -73.5213  -64.9212 N.2       2 ALA2        0.0000 
     36 N          76.1520  -77.0578  -66.0458 N.2       2 ALA2        0.0000 
     37 CZ         74.9008  -76.2999  -65.7142 C.ar      4 PHE5        0.0000 
     38 O          73.6497  -75.5419  -65.3825 O.2       2 ALA2        0.0000 
     39 N          72.3985  -74.7839  -65.0509 N.2       2 ALA2        0.0000 
     40 CA         72.8504  -76.8046  -65.5122 C.3       5 GLY6        0.0000 
     41 O          76.2858  -73.4897  -66.9120 O.2       2 ALA2        0.0000 
     42 O          75.0346  -72.7317  -66.5803 O.2       2 ALA2        0.0000 
     43 O          73.7834  -71.9737  -66.2487 O.2       2 ALA2        0.0000 
     44 O          76.7377  -75.5103  -67.3733 O.2       2 ALA2        0.0000 
     45 DU         75.4865  -74.7523  -67.0416 H         6 CUB7        0.0000 
     46 DU         74.2353  -73.9943  -66.7100 H         6 CUB7        0.0000 
     47 N          72.9841  -73.2364  -66.3783 N.2       2 ALA2        0.0000 
     48 N          71.7329  -72.4784  -66.0467 N.2       2 ALA2        0.0000 
     49 CZ         74.6872  -76.0150  -67.1713 C.ar      4 PHE5        0.0000 
     50 CZ         73.4360  -75.2570  -66.8396 C.ar      4 PHE5        0.0000 
     51 CA         72.1848  -74.4990  -66.5080 C.3       5 GLY6        0.0000 
     52 N          70.9336  -73.7411  -66.1763 N.2       2 ALA2        0.0000 
     53 CZ         72.6367  -76.5197  -66.9693 C.ar      4 PHE5        0.0000 
     54 CA         71.3855  -75.7617  -66.6376 C.3       5 GLY6        0.0000 
     55 CZ         76.3887  -68.9702  -76.8525 C.ar      4 PHE5        0.0000 
     56 CZ         76.8407  -70.9908  -77.3138 C.ar      4 PHE5        0.0000 
     57 N          75.5895  -70.2329  -76.9821 N.2       2 ALA2        0.0000 
     58 CA         76.0414  -72.2535  -77.4435 C.3       5 GLY6        0.0000 
     59 CA         74.7902  -71.4955  -77.1118 C.3       5 GLY6        0.0000 
     60 CA         79.9041  -69.5083  -75.9290 C.3       5 GLY6        0.0000 
     61 OG         78.6529  -68.7504  -75.5974 O.2       1 SER1        0.0000 
     62 CZ         79.1048  -70.7710  -76.0587 C.ar      4 PHE5        0.0000 
     63 CZ         77.8536  -70.0130  -75.7270 C.ar      4 PHE5        0.0000 
     64 CZ         76.6024  -69.2551  -75.3954 C.ar      4 PHE5        0.0000 
     65 CA         77.0543  -71.2757  -75.8567 C.3       5 GLY6        0.0000 
     66 CZ         75.8031  -70.5177  -75.5250 C.ar      4 PHE5        0.0000 
     67 CZ         74.5519  -69.7598  -75.1934 C.ar      4 PHE5        0.0000 
     68 CA         76.2550  -72.5384  -75.9863 C.3       5 GLY6        0.0000 
     69 OG         75.0038  -71.7804  -75.6547 O.2       1 SER1        0.0000 
     70 O          80.0931  -68.3423  -71.0963 O.2       2 ALA2        0.0000 
     71 O          78.8419  -67.5844  -70.7647 O.2       2 ALA2        0.0000 
     72 N          80.5450  -70.3630  -71.5576 N.2       2 ALA2        0.0000 
     73 OG         79.2939  -69.6050  -71.2260 O.2       1 SER1        0.0000 
     74 OG         78.0427  -68.8470  -70.8943 O.2       1 SER1        0.0000 
     75 CZ         76.7915  -68.0891  -70.5627 C.ar      4 PHE5        0.0000 
     76 N          79.7458  -71.6256  -71.6873 N.2       2 ALA2        0.0000 
     77 OG         78.4946  -70.8677  -71.3557 O.2       1 SER1        0.0000 
     78 DU         77.2434  -70.1097  -71.0240 H         6 CUB7        0.0000 
     79 OG         75.9922  -69.3517  -70.6924 O.2       1 SER1        0.0000 
     80 O          77.8597  -69.5134  -63.2771 O.2       2 ALA2        0.0000 
     81 OG         76.6085  -68.7555  -62.9455 O.2       1 SER1        0.0000 
     82 OG         75.3573  -67.9975  -62.6138 O.2       1 SER1        0.0000 
     83 O          77.0605  -70.7761  -63.4068 O.2       2 ALA2        0.0000 
     84 OG         75.8093  -70.0181  -63.0751 O.2       1 SER1        0.0000 
     85 N          74.5581  -69.2602  -62.7435 N.2       2 ALA2        0.0000 
     86 N          73.3069  -68.5022  -62.4118 N.2       2 ALA2        0.0000 
     87 O          77.5124  -72.7967  -63.8681 O.2       2 ALA2        0.0000 
     88 DU         76.2612  -72.0388  -63.5364 H         6 CUB7        0.0000 
     89 N          75.0100  -71.2808  -63.2048 N.2       2 ALA2        0.0000 
     90 N          73.7588  -70.5228  -62.8731 N.2       2 ALA2        0.0000 
     91 N          76.7131  -74.0594  -63.9977 N.2       2 ALA2        0.0000 
     92 DU         75.4619  -73.3014  -63.6661 H         6 CUB7        0.0000 
     93 N          74.2107  -72.5435  -63.3344 N.2       2 ALA2        0.0000 
     94 N          75.9138  -75.3221  -64.1274 N.2       2 ALA2        0.0000 
     95 N          74.6626  -74.5641  -63.7957 N.2       2 ALA2        0.0000 
     96 N          75.1145  -76.5847  -64.2570 N.2       2 ALA2        0.0000 
     97 O          73.8633  -75.8268  -63.9254 O.2       2 ALA2        0.0000 
     98 O          79.8795  -68.0575  -72.5535 O.2       2 ALA2        0.0000 
     99 O          78.6283  -67.2995  -72.2218 O.2       2 ALA2        0.0000 
    100 N          80.3314  -70.0781  -73.0148 N.2       2 ALA2        0.0000 
    101 DU         79.0802  -69.3201  -72.6831 H         6 CUB7        0.0000 
    102 CZ         77.8290  -68.5622  -72.3515 C.ar      4 PHE5        0.0000 
    103 N          79.5321  -71.3408  -73.1444 N.2       2 ALA2        0.0000 
    104 DU         78.2809  -70.5828  -72.8128 H         6 CUB7        0.0000 
    105 CZ         77.0297  -69.8248  -72.4811 C.ar      4 PHE5        0.0000 
    106 CA         77.4816  -71.8455  -72.9424 C.3       5 GLY6        0.0000 
    107 OG         76.2304  -71.0875  -72.6108 O.2       1 SER1        0.0000 
    108 OG         74.9792  -70.3295  -72.2791 O.2       1 SER1        0.0000 
    109 OG         78.2563  -69.1319  -69.4372 O.2       1 SER1        0.0000 
    110 O          77.0051  -68.3739  -69.1056 O.2       2 ALA2        0.0000 
    111 OG         78.7082  -71.1525  -69.8985 O.2       1 SER1        0.0000 
    112 OG         77.4570  -70.3946  -69.5669 O.2       1 SER1        0.0000 
    113 O          76.2058  -69.6366  -69.2352 O.2       2 ALA2        0.0000 
    114 O          77.9089  -72.4152  -70.0282 O.2       2 ALA2        0.0000 
    115 O          76.6577  -71.6572  -69.6965 O.2       2 ALA2        0.0000 
    116 O          78.3608  -74.4358  -70.4895 O.2       2 ALA2        0.0000 
    117 O          77.1096  -73.6779  -70.1579 O.2       2 ALA2        0.0000 
    118 OG         75.8585  -72.9199  -69.8262 O.2       1 SER1        0.0000 
    119 CZ         73.8080  -73.4246  -69.6242 C.ar      4 PHE5        0.0000 
    120 N          71.7575  -73.9293  -69.4222 N.2       2 ALA2        0.0000 
    121 OG         77.6707  -70.6794  -68.1098 O.2       1 SER1        0.0000 
    122 OG         76.4195  -69.9215  -67.7781 O.2       1 SER1        0.0000 
    123 O          76.8714  -71.9421  -68.2394 O.2       2 ALA2        0.0000 
    124 O          75.6202  -71.1841  -67.9078 O.2       2 ALA2        0.0000 
    125 O          77.3233  -73.9627  -68.7007 O.2       2 ALA2        0.0000 
    126 O          76.0721  -73.2048  -68.3691 O.2       2 ALA2        0.0000 
    127 O          74.8209  -72.4468  -68.0374 O.2       2 ALA2        0.0000 
    128 O          76.5240  -75.2254  -68.8304 O.2       2 ALA2        0.0000 
    129 CZ         75.2728  -74.4674  -68.4987 C.ar      4 PHE5        0.0000 
    130 O          74.0216  -73.7095  -68.1671 O.2       2 ALA2        0.0000 
    131 O          72.7704  -72.9515  -67.8354 O.2       2 ALA2        0.0000 
    132 O          71.5192  -72.1935  -67.5038 O.2       2 ALA2        0.0000 
    133 CZ         74.4735  -75.7301  -68.6284 C.ar      4 PHE5        0.0000 
    134 CZ         73.2223  -74.9721  -68.2968 C.ar      4 PHE5        0.0000 
    135 CA         71.9711  -74.2142  -67.9651 C.3       5 GLY6        0.0000 
    136 CA         78.9465  -72.8883  -71.8170 C.3       5 GLY6        0.0000 
    137 OG         77.6953  -72.1303  -71.4853 O.2       1 SER1        0.0000 
    138 OG         76.4441  -71.3724  -71.1537 O.2       1 SER1        0.0000 
    139 O          75.1929  -70.6144  -70.8220 O.2       2 ALA2        0.0000 
    140 CA         78.1472  -74.1510  -71.9466 C.3       5 GLY6        0.0000 
    141 OG         76.8960  -73.3930  -71.6150 O.2       1 SER1        0.0000 
    142 O          77.9397  -73.3665  -60.9538 O.2       2 ALA2        0.0000 
    143 N          76.6885  -72.6085  -60.6222 N.2       2 ALA2        0.0000 
    144 CA         77.1404  -74.6291  -61.0835 C.3       5 GLY6        0.0000 
    145 CA         75.8892  -73.8712  -60.7518 C.3       5 GLY6        0.0000 
    146 CA         76.3411  -75.8918  -61.2131 C.3       5 GLY6        0.0000 
    147 CA         75.0899  -75.1338  -60.8815 C.3       5 GLY6        0.0000 
    148 OG         79.6658  -67.7726  -74.0106 O.2       1 SER1        0.0000 
    149 CA         80.1177  -69.7932  -74.4719 C.3       5 GLY6        0.0000 
    150 CZ         78.8665  -69.0352  -74.1402 C.ar      4 PHE5        0.0000 
    151 CA         79.3185  -71.0559  -74.6015 C.3       5 GLY6        0.0000 
    152 DU         78.0673  -70.2979  -74.2699 H         6 CUB7        0.0000 
    153 CZ         76.8161  -69.5399  -73.9382 C.ar      4 PHE5        0.0000 
    154 CA         77.2680  -71.5606  -74.3996 C.3       5 GLY6        0.0000 
    155 OG         76.0168  -70.8026  -74.0679 O.2       1 SER1        0.0000 
    156 CZ         74.7656  -70.0446  -73.7363 C.ar      4 PHE5        0.0000 
@<TRIPOS>BOND
@<TRIPOS>SUBSTRUCTURE
     1 SER1       18 GROUP   
     2 ALA2        1 GROUP   
     3 LYS4       24 GROUP   
     4 PHE5       17 GROUP   
     5 GLY6        9 GROUP   
     6 CUB7       26 GROUP   
@<TRIPOS>SET

