#    Name: 3hdy_GDU_5_INTS_M
#    Modification time : Tue Mar 25 14:03:59 2014

@<TRIPOS>MOLECULE
3hdy_GDU_5_INTS_M
   73     0    12     0     0
SMALL
NO_CHARGES


@<TRIPOS>ATOM
      1 O          75.5700  -68.8395  -78.4785 O.2       1 ALC1        0.0000 
      2 O          75.7780  -69.4570  -77.1400 O.2       9 ALL1        0.0000 
      3 O          75.3620  -68.2220  -79.8170 O.2       5 ALP1        0.0000 
      4 N          72.7445  -70.6700  -75.6020 N.am      2 SEC2        0.0000 
      5 N          73.7910  -70.4490  -76.7920 N.am     10 SEL2        0.0000 
      6 N          71.6980  -70.8910  -74.4120 N.am      6 SEP2        0.0000 
      7 CA         78.9915  -70.0505  -76.9885 C.3       4 GLC5        0.0000 
      8 CA         78.8030  -69.4860  -75.0690 C.3      12 GLL5        0.0000 
      9 CA         79.1800  -70.6150  -78.9080 C.3       8 GLP5        0.0000 
     10 CA         80.7465  -69.4520  -75.9590 C.3       4 GLC5        0.0000 
     11 CA         82.6900  -69.4180  -76.8490 C.3       8 GLP5        0.0000 
     12 CA         79.1695  -66.2150  -75.0090 C.3       4 GLC5        0.0000 
     13 CA         79.0100  -68.2550  -74.1440 C.3      12 GLL5        0.0000 
     14 CA         79.3290  -64.1750  -75.8740 C.3       8 GLP5        0.0000 
     15 N          80.7065  -66.7385  -72.9310 N.am      2 SEC2        0.0000 
     16 N          80.2880  -67.6260  -74.2850 N.am     10 SEL2        0.0000 
     17 N          81.1250  -65.8510  -71.5770 N.am      6 SEP2        0.0000 
     18 O          80.3355  -66.9005  -75.5225 O.2       1 ALC1        0.0000 
     19 O          80.2880  -67.6260  -74.2850 O.2       9 ALL1        0.0000 
     20 O          80.3830  -66.1750  -76.7600 O.2       5 ALP1        0.0000 
     21 CA         77.1170  -68.0295  -73.0480 C.3       4 GLC5        0.0000 
     22 CA         78.7960  -68.8590  -72.7650 C.3      12 GLL5        0.0000 
     23 CA         75.4380  -67.2000  -73.3310 C.3       8 GLP5        0.0000 
     24 CA         81.4780  -69.4400  -72.7720 C.3       4 GLC5        0.0000 
     25 CA         79.5600  -70.1740  -72.9280 C.3      12 GLL5        0.0000 
     26 CA         83.3960  -68.7060  -72.6160 C.3       8 GLP5        0.0000 
     27 N          80.2375  -66.9410  -71.6600 N.am      2 SEC2        0.0000 
     28 N          79.3500  -68.0310  -71.7430 N.am     10 SEL2        0.0000 
     29 CA         80.8075  -72.2345  -70.8545 C.3       4 GLC5        0.0000 
     30 CA         79.4030  -71.2010  -71.7990 C.3      12 GLL5        0.0000 
     31 CA         82.2120  -73.2680  -69.9100 C.3       8 GLP5        0.0000 
     32 NZ         78.9445  -73.7190  -68.7560 N.4       3 LYC4        0.0000 
     33 NZ         78.3080  -72.9780  -69.8640 N.4      11 LYL4        0.0000 
     34 NZ         80.7900  -74.2530  -68.1520 N.4       7 LYP4        0.0000 
     35 N          79.6195  -73.2640  -69.5675 N.am      2 SEC2        0.0000 
     36 N          78.3080  -72.9780  -69.8640 N.am     10 SEL2        0.0000 
     37 N          80.9310  -73.5500  -69.2710 N.am      6 SEP2        0.0000 
     38 N          78.9445  -73.7190  -68.7560 N.am      2 SEC2        0.0000 
     39 N          79.5810  -74.4600  -67.6480 N.am      6 SEP2        0.0000 
     40 N          74.9050  -69.3575  -67.4880 N.am      2 SEC2        0.0000 
     41 N          76.5940  -69.4250  -67.8950 N.am     10 SEL2        0.0000 
     42 N          73.2160  -69.2900  -67.0810 N.am      6 SEP2        0.0000 
     43 N          76.5605  -68.6230  -66.8315 N.am      2 SEC2        0.0000 
     44 N          76.5270  -67.8210  -65.7680 N.am      6 SEP2        0.0000 
     45 N          78.9660  -70.7295  -67.6520 N.am      2 SEC2        0.0000 
     46 N          77.8060  -71.3630  -67.2950 N.am     10 SEL2        0.0000 
     47 N          80.1260  -70.0960  -68.0090 N.am      6 SEP2        0.0000 
     48 N          74.1365  -70.9020  -68.2085 N.am      2 SEC2        0.0000 
     49 N          75.2840  -71.4360  -67.3230 N.am     10 SEL2        0.0000 
     50 N          72.9890  -70.3680  -69.0940 N.am      6 SEP2        0.0000 
     51 N          74.2500  -70.3630  -67.2020 N.am      2 SEC2        0.0000 
     52 CA         73.8925  -76.4270  -68.1605 C.3       4 GLC5        0.0000 
     53 CA         73.9060  -74.3630  -68.2130 C.3      12 GLL5        0.0000 
     54 CA         73.8790  -78.4910  -68.1080 C.3       8 GLP5        0.0000 
     55 CA         70.1475  -72.7725  -66.0580 C.3       4 GLC5        0.0000 
     56 CA         71.6250  -73.3650  -67.5350 C.3      12 GLL5        0.0000 
     57 CA         68.6700  -72.1800  -64.5810 C.3       8 GLP5        0.0000 
     58 CA         70.4200  -74.7655  -66.2750 C.3       4 GLC5        0.0000 
     59 CA         69.2150  -76.1660  -65.0150 C.3       8 GLP5        0.0000 
     60 CA         70.5245  -75.1045  -68.3570 C.3       4 GLC5        0.0000 
     61 CA         69.4240  -76.8440  -69.1790 C.3       8 GLP5        0.0000 
     62 N          73.4000  -70.9420  -66.7095 N.am      2 SEC2        0.0000 
     63 N          73.5840  -72.5940  -66.3380 N.am     10 SEL2        0.0000 
     64 CA         75.7410  -68.9488  -74.1617 C.3       4 GLC5        0.0000 
     65 CA         75.4170  -70.8290  -75.1860 C.3      12 GLL5        0.0000 
     66 CA         76.9195  -72.4792  -74.8693 C.3       4 GLC5        0.0000 
     67 CA         76.6710  -70.5660  -74.7990 C.3      12 GLL5        0.0000 
     68 CA         77.7950  -74.2610  -74.7460 C.3       8 GLP5        0.0000 
     69 CA         77.3758  -67.7912  -74.5867 C.3       4 GLC5        0.0000 
     70 CA         75.8450  -66.7120  -74.5670 C.3       8 GLP5        0.0000 
     71 CA         74.4760  -74.9425  -69.7925 C.3       4 GLC5        0.0000 
     72 CA         75.4360  -74.2330  -67.9490 C.3      12 GLL5        0.0000 
     73 CA         74.2810  -75.5870  -71.5040 C.3       8 GLP5        0.0000 
@<TRIPOS>BOND
@<TRIPOS>SUBSTRUCTURE
     1 ALC1        1 GROUP        1 X    ALC  0     ROOT ALC X 1
     2 SEC2        4 GROUP        1 X    SEC  0     **** SEC X 2
     3 LYC4       32 GROUP        1 X    LYC  0     **** LYC X 4
     4 GLC5        7 GROUP        1 X    GLC  0     **** GLC X 6
     5 ALP1        3 GROUP        1 Y    ALP  0     ROOT ALP Y 8
     6 SEP2        6 GROUP        1 Y    SEP  0     **** SEP Y 9
     7 LYP4       34 GROUP        1 Y    LYP  0     **** LYP Y 11
     8 GLP5        9 GROUP        1 Y    GLP  0     **** GLP Y 13
     9 ALL1        2 GROUP        1 Z    ALL  0     ROOT ALL Z 15
    10 SEL2        5 GROUP        1 Z    SEL  0     **** SEL Z 16
    11 LYL4       33 GROUP        1 Z    LYL  0     **** LYL Z 18
    12 GLL5        8 GROUP        1 Z    GLL  0     **** GLL Z 20
@<TRIPOS>SET

