#    Name: 3hdy_GDU_5_ligand
#    Modification time : Tue Mar 25 14:03:59 2014

@<TRIPOS>MOLECULE
3hdy_GDU_5_ligand
   58    60     1     0     0
SMALL
NO_CHARGES


@<TRIPOS>ATOM
      1 N1         77.4720  -69.7750  -75.5580 N.am      1 GDU500      0.0000 
      2 C2         76.9150  -69.3400  -76.6020 C.2       1 GDU500      0.0000 
      3 N3         75.7780  -69.4570  -77.1400 N.am      1 GDU500      0.0000 
      4 C4         74.9380  -70.2350  -76.4370 C.2       1 GDU500      0.0000 
      5 C5         75.4170  -70.8290  -75.1860 C.2       1 GDU500      0.0000 
      6 C6         76.6710  -70.5660  -74.7990 C.2       1 GDU500      0.0000 
      7 O2         77.7620  -68.4900  -77.3820 O.2       1 GDU500      0.0000 
      8 O4         73.7910  -70.4490  -76.7920 O.2       1 GDU500      0.0000 
      9 C1D        78.8030  -69.4860  -75.0690 C.3       1 GDU500      0.0000 
     10 C2D        79.0100  -68.2550  -74.1440 C.3       1 GDU500      0.0000 
     11 O2D        80.2880  -67.6260  -74.2850 O.3       1 GDU500      0.0000 
     12 C3D        78.7960  -68.8590  -72.7650 C.3       1 GDU500      0.0000 
     13 C4D        79.5600  -70.1740  -72.9280 C.3       1 GDU500      0.0000 
     14 O4D        79.3410  -70.5790  -74.2870 O.3       1 GDU500      0.0000 
     15 O3D        79.3500  -68.0310  -71.7430 O.3       1 GDU500      0.0000 
     16 C5D        79.4030  -71.2010  -71.7990 C.3       1 GDU500      0.0000 
     17 O5D        77.9990  -71.5050  -71.8030 O.3       1 GDU500      0.0000 
     18 PA         77.2680  -72.1580  -70.5460 P.3       1 GDU500      0.0000 
     19 O1A        76.2090  -73.0660  -71.0570 O.co2     1 GDU500      0.0000 
     20 O2A        78.3080  -72.9780  -69.8640 O.co2     1 GDU500      0.0000 
     21 O3A        76.5670  -71.0480  -69.6470 O.3       1 GDU500      0.0000 
     22 PB         76.6080  -70.9020  -68.0590 P.3       1 GDU500      0.0000 
     23 O1B        76.5940  -69.4250  -67.8950 O.co2     1 GDU500      0.0000 
     24 O2B        77.8060  -71.3630  -67.2950 O.co2     1 GDU500      0.0000 
     25 O3B        75.2840  -71.4360  -67.3230 O.3       1 GDU500      0.0000 
     26 C1'        75.0090  -72.3910  -66.2760 C.3       1 GDU500      0.0000 
     27 C2'        75.6770  -73.7700  -66.4900 C.3       1 GDU500      0.0000 
     28 C3'        75.4360  -74.2330  -67.9490 C.3       1 GDU500      0.0000 
     29 C4'        73.9060  -74.3630  -68.2130 C.3       1 GDU500      0.0000 
     30 C5'        73.1590  -73.1410  -67.6140 C.3       1 GDU500      0.0000 
     31 C6'        71.6250  -73.3650  -67.5350 C.3       1 GDU500      0.0000 
     32 O2'        77.0690  -73.7640  -66.1230 O.3       1 GDU500      0.0000 
     33 O3'        76.1050  -75.5000  -68.1170 O.3       1 GDU500      0.0000 
     34 O4'        73.4480  -75.5980  -67.6230 O.3       1 GDU500      0.0000 
     35 O5'        73.5840  -72.5940  -66.3380 O.3       1 GDU500      0.0000 
     36 O6'        71.0310  -73.4530  -68.8490 O.3       1 GDU500      0.0000 
     37 H          75.4874  -69.0261  -78.0107 H         1 GDU500      0.0000 
     38 H          74.7706  -71.4152  -74.6697 H         1 GDU500      0.0000 
     39 H          77.0437  -70.9676  -73.9091 H         1 GDU500      0.0000 
     40 H          79.5079  -69.3313  -75.9178 H         1 GDU500      0.0000 
     41 H          78.1798  -67.5916  -74.3308 H         1 GDU500      0.0000 
     42 H          77.7747  -69.0824  -72.6578 H         1 GDU500      0.0000 
     43 H          80.6700  -69.8262  -72.8825 H         1 GDU500      0.0000 
     44 H          79.7157  -70.7422  -70.8831 H         1 GDU500      0.0000 
     45 H          80.0033  -72.0553  -72.0376 H         1 GDU500      0.0000 
     46 H          75.2815  -72.0183  -65.3194 H         1 GDU500      0.0000 
     47 H          75.1165  -74.4806  -65.8479 H         1 GDU500      0.0000 
     48 H          75.8328  -73.4854  -68.6005 H         1 GDU500      0.0000 
     49 H          73.7620  -74.3594  -69.2783 H         1 GDU500      0.0000 
     50 H          73.2549  -72.3057  -68.3912 H         1 GDU500      0.0000 
     51 H          71.2030  -72.5307  -66.9562 H         1 GDU500      0.0000 
     52 H          71.4591  -74.2841  -66.9545 H         1 GDU500      0.0000 
     53 H          80.2528  -67.1645  -75.1715 H         1 GDU500      0.0000 
     54 H          78.8266  -67.1800  -71.7874 H         1 GDU500      0.0000 
     55 H          77.4244  -72.8963  -66.4705 H         1 GDU500      0.0000 
     56 H          76.7410  -75.5607  -67.3477 H         1 GDU500      0.0000 
     57 H          74.2812  -76.1130  -67.4215 H         1 GDU500      0.0000 
     58 H          71.3468  -72.6357  -69.3309 H         1 GDU500      0.0000 
@<TRIPOS>BOND
     1    2    1 1    
     2    6    1 1    
     3    9    1 1    
     4    3    2 1    
     5    7    2 2    
     6    4    3 1    
     7   37    3 1    
     8    5    4 1    
     9    8    4 2    
    10    6    5 2    
    11   38    5 1    
    12   39    6 1    
    13   10    9 1    
    14   14    9 1    
    15   40    9 1    
    16   11   10 1    
    17   12   10 1    
    18   41   10 1    
    19   53   11 1    
    20   13   12 1    
    21   15   12 1    
    22   42   12 1    
    23   14   13 1    
    24   16   13 1    
    25   43   13 1    
    26   54   15 1    
    27   17   16 1    
    28   44   16 1    
    29   45   16 1    
    30   18   17 1    
    31   19   18 ar   
    32   20   18 ar   
    33   21   18 1    
    34   22   21 1    
    35   23   22 ar   
    36   24   22 ar   
    37   25   22 1    
    38   26   25 1    
    39   27   26 1    
    40   35   26 1    
    41   46   26 1    
    42   28   27 1    
    43   32   27 1    
    44   47   27 1    
    45   29   28 1    
    46   33   28 1    
    47   48   28 1    
    48   30   29 1    
    49   34   29 1    
    50   49   29 1    
    51   31   30 1    
    52   35   30 1    
    53   50   30 1    
    54   36   31 1    
    55   51   31 1    
    56   52   31 1    
    57   55   32 1    
    58   56   33 1    
    59   57   34 1    
    60   58   36 1    
@<TRIPOS>SUBSTRUCTURE
     1 GDU500      1 GROUP   
@<TRIPOS>SET

