#    Name: 1h46_RNP_1_INTS_M
#    Modification time : Tue Mar 25 04:34:23 2014

@<TRIPOS>MOLECULE
1h46_RNP_1_INTS_M
   35     0     3     0     0
SMALL
NO_CHARGES


@<TRIPOS>ATOM
      1 CA          4.9575   11.9185   23.0905 C.3       1 GLC5        0.0000 
      2 CA          3.4940   11.0710   24.5410 C.3       3 GLL5        0.0000 
      3 CA          6.4210   12.7660   21.6400 C.3       2 GLP5        0.0000 
      4 CA          7.5010    6.8195   26.2190 C.3       1 GLC5        0.0000 
      5 CA          5.7800    5.8750   25.3090 C.3       3 GLL5        0.0000 
      6 CA          9.2220    7.7640   27.1290 C.3       2 GLP5        0.0000 
      7 CA          4.5845    4.7205   26.6765 C.3       1 GLC5        0.0000 
      8 CA          3.3890    3.5660   28.0440 C.3       2 GLP5        0.0000 
      9 CA          5.7105    0.2225   24.4195 C.3       1 GLC5        0.0000 
     10 CA          6.8380    1.9490   24.8980 C.3       3 GLL5        0.0000 
     11 CA          4.5830   -1.5040   23.9410 C.3       2 GLP5        0.0000 
     12 CA          7.6810    0.3800   24.8140 C.3       1 GLC5        0.0000 
     13 CA          8.5240   -1.1890   24.7300 C.3       2 GLP5        0.0000 
     14 CA          5.2515    1.9130   23.3550 C.3       1 GLC5        0.0000 
     15 CA          3.6650    1.8770   21.8120 C.3       2 GLP5        0.0000 
     16 CA          9.5120    1.7490   25.2805 C.3       1 GLC5        0.0000 
     17 CA          8.5500    3.2940   26.0960 C.3       3 GLL5        0.0000 
     18 CA         10.4740    0.2040   24.4650 C.3       2 GLP5        0.0000 
     19 CA         10.6760    3.6885   26.1105 C.3       1 GLC5        0.0000 
     20 CA         12.8020    4.0830   26.1250 C.3       2 GLP5        0.0000 
     21 CA          0.9108   10.7203   25.6047 C.3       1 GLC5        0.0000 
     22 CA          2.7870   11.0870   26.8670 C.3       3 GLL5        0.0000 
     23 CA         -1.0190   10.0380   24.9610 C.3       2 GLP5        0.0000 
     24 CA          2.4438   10.0745   31.3313 C.3       1 GLC5        0.0000 
     25 CA          2.1610   10.9560   29.1890 C.3       3 GLL5        0.0000 
     26 CA          2.4780    9.8410   33.4120 C.3       2 GLP5        0.0000 
     27 CA          0.7506   10.4470   29.6666 C.3       1 GLC5        0.0000 
     28 CA          2.6580    9.6600   29.3120 C.3       3 GLL5        0.0000 
     29 CA         -0.9220   10.4070   30.3820 C.3       2 GLP5        0.0000 
     30 CA          3.5528    5.9700   24.8462 C.3       1 GLC5        0.0000 
     31 CA          5.1050    7.1650   24.8980 C.3       3 GLL5        0.0000 
     32 CA          1.6630    5.4200   24.5890 C.3       2 GLP5        0.0000 
     33 CA          5.2805    2.5595   26.1937 C.3       1 GLC5        0.0000 
     34 CA          7.1920    3.3470   25.4010 C.3       3 GLL5        0.0000 
     35 CA          3.5460    2.4710   27.2380 C.3       2 GLP5        0.0000 
@<TRIPOS>BOND
@<TRIPOS>SUBSTRUCTURE
     1 GLC5        1 GROUP        1 X    GLC  0     ROOT GLC X 6
     2 GLP5        3 GROUP        1 Y    GLP  0     ROOT GLP Y 13
     3 GLL5        2 GROUP        1 Z    GLL  0     ROOT GLL Z 20
@<TRIPOS>SET

