#    Name: 1h46_RNP_1_ligand
#    Modification time : Tue Mar 25 04:34:24 2014

@<TRIPOS>MOLECULE
1h46_RNP_1_ligand
   38    39     1     0     0
SMALL
NO_CHARGES


@<TRIPOS>ATOM
      1 C1          3.9310    9.0750   25.8320 C.ar      1 RNP1433     0.0000 
      2 C2          4.0120    9.7700   24.6360 C.ar      1 RNP1433     0.0000 
      3 C3          3.4940   11.0710   24.5410 C.ar      1 RNP1433     0.0000 
      4 C4          2.8940   11.7180   25.6300 C.ar      1 RNP1433     0.0000 
      5 C5          2.2160   11.6720   27.9920 C.ar      1 RNP1433     0.0000 
      6 C6          2.1610   10.9560   29.1890 C.ar      1 RNP1433     0.0000 
      7 C7          2.6580    9.6600   29.3120 C.ar      1 RNP1433     0.0000 
      8 C8          3.2460    9.0320   28.2190 C.ar      1 RNP1433     0.0000 
      9 C9          3.3220    9.7170   27.0170 C.ar      1 RNP1433     0.0000 
     10 C10         2.7870   11.0870   26.8670 C.ar      1 RNP1433     0.0000 
     11 O1          4.4140    7.8060   25.9980 O.3       1 RNP1433     0.0000 
     12 C11         5.1050    7.1650   24.8980 C.3       1 RNP1433     0.0000 
     13 C12         5.7800    5.8750   25.3090 C.3       1 RNP1433     0.0000 
     14 O2          6.3770    6.0290   26.6000 O.3       1 RNP1433     0.0000 
     15 C13         6.8660    5.5380   24.3220 C.2       1 RNP1433     0.0000 
     16 N1          7.2460    4.2580   24.2600 N.2       1 RNP1433     0.0000 
     17 C14         7.1920    3.3470   25.4010 C.3       1 RNP1433     0.0000 
     18 C15         6.8380    1.9490   24.8980 C.3       1 RNP1433     0.0000 
     19 C16         8.5500    3.2940   26.0960 C.3       1 RNP1433     0.0000 
     20 H           4.4506    9.3391   23.8124 H         1 RNP1433     0.0000 
     21 H           3.5579   11.5713   23.6313 H         1 RNP1433     0.0000 
     22 H           2.5274   12.6757   25.5096 H         1 RNP1433     0.0000 
     23 H           1.8372   12.6229   27.9449 H         1 RNP1433     0.0000 
     24 H           1.7298   11.4108   30.0255 H         1 RNP1433     0.0000 
     25 H           2.5894    9.1681   30.2125 H         1 RNP1433     0.0000 
     26 H           3.6141    8.0838   28.3034 H         1 RNP1433     0.0000 
     27 H           5.8756    7.8376   24.4748 H         1 RNP1433     0.0000 
     28 H           4.4023    6.9387   24.0732 H         1 RNP1433     0.0000 
     29 H           5.0543    5.0861   25.3065 H         1 RNP1433     0.0000 
     30 H           7.2321    6.2902   23.7782 H         1 RNP1433     0.0000 
     31 H           6.4516    3.6544   26.1053 H         1 RNP1433     0.0000 
     32 H           7.5168    1.6048   24.2493 H         1 RNP1433     0.0000 
     33 H           6.7855    1.2874   25.6460 H         1 RNP1433     0.0000 
     34 H           5.9535    1.9350   24.4317 H         1 RNP1433     0.0000 
     35 H           9.2708    2.9777   25.4792 H         1 RNP1433     0.0000 
     36 H           8.8285    4.1922   26.4361 H         1 RNP1433     0.0000 
     37 H           8.5420    2.6733   26.8800 H         1 RNP1433     0.0000 
     38 H           5.7302    6.5877   27.1191 H         1 RNP1433     0.0000 
@<TRIPOS>BOND
     1    2    1 ar   
     2    9    1 ar   
     3   11    1 1    
     4    3    2 ar   
     5   20    2 1    
     6    4    3 ar   
     7   21    3 1    
     8   10    4 ar   
     9   22    4 1    
    10    6    5 ar   
    11   10    5 ar   
    12   23    5 1    
    13    7    6 ar   
    14   24    6 1    
    15    8    7 ar   
    16   25    7 1    
    17    9    8 ar   
    18   26    8 1    
    19   10    9 ar   
    20   12   11 1    
    21   13   12 1    
    22   27   12 1    
    23   28   12 1    
    24   14   13 1    
    25   15   13 1    
    26   29   13 1    
    27   38   14 1    
    28   16   15 2    
    29   30   15 1    
    30   17   16 1    
    31   18   17 1    
    32   19   17 1    
    33   31   17 1    
    34   32   18 1    
    35   33   18 1    
    36   34   18 1    
    37   35   19 1    
    38   36   19 1    
    39   37   19 1    
@<TRIPOS>SUBSTRUCTURE
     1 RNP1433     1 GROUP   
@<TRIPOS>SET

