#    Name: 4eal_AMP_1_INTS_M
#    Modification time : Tue Mar 25 10:50:41 2014

@<TRIPOS>MOLECULE
4eal_AMP_1_INTS_M
   59     0     9     0     0
SMALL
NO_CHARGES


@<TRIPOS>ATOM
      1 N         -10.2855  404.1200  -25.2330 N.am      2 SEC2        0.0000 
      2 N         -10.1110  403.0570  -24.3400 N.am      8 SEL2        0.0000 
      3 N         -10.4600  405.1830  -26.1260 N.am      5 SEP2        0.0000 
      4 N          -8.5755  403.8875  -24.2420 N.am      2 SEC2        0.0000 
      5 N          -7.0400  404.7180  -24.1440 N.am      5 SEP2        0.0000 
      6 N         -12.1575  401.7690  -22.7930 N.am      2 SEC2        0.0000 
      7 N         -11.5660  402.8320  -22.2530 N.am      8 SEL2        0.0000 
      8 N         -12.7490  400.7060  -23.3330 N.am      5 SEP2        0.0000 
      9 N          -8.3755  404.5590  -23.2330 N.am      2 SEC2        0.0000 
     10 N          -9.7110  404.4000  -22.3220 N.am      8 SEL2        0.0000 
     11 N          -7.3295  409.2045  -21.3710 N.am      2 SEC2        0.0000 
     12 N          -8.3770  408.3230  -22.3670 N.am      8 SEL2        0.0000 
     13 N          -6.2820  410.0860  -20.3750 N.am      5 SEP2        0.0000 
     14 O          -7.2615  408.8215  -22.8925 O.2       1 ALC1        0.0000 
     15 O          -8.3770  408.3230  -22.3670 O.2       7 ALL1        0.0000 
     16 O          -6.1460  409.3200  -23.4180 O.2       4 ALP1        0.0000 
     17 CA         -6.7805  404.6620  -22.0320 C.3       3 GLC5        0.0000 
     18 CA         -7.5810  406.4070  -21.1190 C.3       9 GLL5        0.0000 
     19 CA         -5.9800  402.9170  -22.9450 C.3       6 GLP5        0.0000 
     20 O          -5.6490  407.4200  -22.1295 O.2       1 ALC1        0.0000 
     21 O          -6.4630  407.2850  -20.9580 O.2       7 ALL1        0.0000 
     22 O          -4.8350  407.5550  -23.3010 O.2       4 ALP1        0.0000 
     23 O          -6.3045  408.3025  -22.1880 O.2       1 ALC1        0.0000 
     24 CA         -9.9855  406.9685  -18.3655 C.3       3 GLC5        0.0000 
     25 CA         -8.4220  406.3520  -19.8560 C.3       9 GLL5        0.0000 
     26 CA        -11.5490  407.5850  -16.8750 C.3       6 GLP5        0.0000 
     27 CA         -5.3140  403.6180  -14.7080 C.3       3 GLC5        0.0000 
     28 CA         -7.0400  403.4690  -16.0390 C.3       9 GLL5        0.0000 
     29 CA         -3.5880  403.7670  -13.3770 C.3       6 GLP5        0.0000 
     30 CA         -7.9660  403.4590  -14.2810 C.3       3 GLC5        0.0000 
     31 CA         -8.8920  403.4490  -12.5230 C.3       6 GLP5        0.0000 
     32 CA         -8.7705  402.5870  -15.7920 C.3       3 GLC5        0.0000 
     33 CA        -10.5010  401.7050  -15.5450 C.3       6 GLP5        0.0000 
     34 O          -6.7930  401.8875  -14.2825 O.2       1 ALC1        0.0000 
     35 O          -6.8350  402.1960  -15.6230 O.2       7 ALL1        0.0000 
     36 O          -6.7510  401.5790  -12.9420 O.2       4 ALP1        0.0000 
     37 O          -7.2845  401.1075  -16.3735 O.2       1 ALC1        0.0000 
     38 O          -7.7340  400.0190  -17.1240 O.2       4 ALP1        0.0000 
     39 N          -6.7455  404.5190  -13.8085 N.am      2 SEC2        0.0000 
     40 N          -6.8360  404.5240  -15.2180 N.am      8 SEL2        0.0000 
     41 N          -6.6550  404.5140  -12.3990 N.am      5 SEP2        0.0000 
     42 CA         -4.8045  405.9315  -15.8140 C.3       3 GLC5        0.0000 
     43 CA         -7.0380  405.7900  -15.6270 C.3       9 GLL5        0.0000 
     44 CA         -2.5710  406.0730  -16.0010 C.3       6 GLP5        0.0000 
     45 CA         -6.0220  406.0385  -14.0110 C.3       3 GLC5        0.0000 
     46 CA         -5.0060  406.2870  -12.3950 C.3       6 GLP5        0.0000 
     47 CA         -8.2960  405.3025  -14.0950 C.3       3 GLC5        0.0000 
     48 CA         -9.5540  404.8150  -12.5630 C.3       6 GLP5        0.0000 
     49 CA         -5.8865  404.2335  -18.6165 C.3       3 GLC5        0.0000 
     50 CA         -7.6880  405.1570  -17.7850 C.3       9 GLL5        0.0000 
     51 CA         -4.0850  403.3100  -19.4480 C.3       6 GLP5        0.0000 
     52 CA         -9.5789  406.4641  -24.0580 C.3       3 GLC5        0.0000 
     53 CA         -9.9290  406.6510  -21.6320 C.3       9 GLL5        0.0000 
     54 CA         -9.7600  406.4290  -26.0180 C.3       6 GLP5        0.0000 
     55 CA         -5.7302  402.9785  -17.5010 C.3       3 GLC5        0.0000 
     56 CA         -7.4950  403.7470  -17.4170 C.3       9 GLL5        0.0000 
     57 CA         -4.1930  402.3490  -18.2740 C.3       6 GLP5        0.0000 
     58 CA         -9.4857  404.1620  -17.5175 C.3       3 GLC5        0.0000 
     59 CA        -11.3800  403.8720  -17.4340 C.3       6 GLP5        0.0000 
@<TRIPOS>BOND
@<TRIPOS>SUBSTRUCTURE
     1 ALC1       14 GROUP        1 X    ALC  0     ROOT ALC X 1
     2 SEC2        1 GROUP        1 X    SEC  0     **** SEC X 2
     3 GLC5       17 GROUP        1 X    GLC  0     **** GLC X 6
     4 ALP1       16 GROUP        1 Y    ALP  0     ROOT ALP Y 8
     5 SEP2        3 GROUP        1 Y    SEP  0     **** SEP Y 9
     6 GLP5       19 GROUP        1 Y    GLP  0     **** GLP Y 13
     7 ALL1       15 GROUP        1 Z    ALL  0     ROOT ALL Z 15
     8 SEL2        2 GROUP        1 Z    SEL  0     **** SEL Z 16
     9 GLL5       18 GROUP        1 Z    GLL  0     **** GLL Z 20
@<TRIPOS>SET

