#    Name: 4eal_AMP_1_ligand
#    Modification time : Tue Mar 25 10:50:41 2014

@<TRIPOS>MOLECULE
4eal_AMP_1_ligand
   35    37     1     0     0
SMALL
NO_CHARGES


@<TRIPOS>ATOM
      1 P         -10.1790  402.9540  -22.8350 P.3       1 AMP401      0.0000 
      2 O1P       -10.1110  403.0570  -24.3400 O.co2     1 AMP401      0.0000 
      3 O2P        -9.1680  402.0170  -22.2220 O.co2     1 AMP401      0.0000 
      4 O3P       -11.5660  402.8320  -22.2530 O.co2     1 AMP401      0.0000 
      5 O5'        -9.7110  404.4000  -22.3220 O.3       1 AMP401      0.0000 
      6 C5'       -10.5900  405.5180  -22.3980 C.3       1 AMP401      0.0000 
      7 C4'        -9.9290  406.6510  -21.6320 C.3       1 AMP401      0.0000 
      8 O4'        -9.7870  406.2650  -20.2650 O.3       1 AMP401      0.0000 
      9 C3'        -8.5360  406.9140  -22.1810 C.3       1 AMP401      0.0000 
     10 O3'        -8.3770  408.3230  -22.3670 O.3       1 AMP401      0.0000 
     11 C2'        -7.5810  406.4070  -21.1190 C.3       1 AMP401      0.0000 
     12 O2'        -6.4630  407.2850  -20.9580 O.3       1 AMP401      0.0000 
     13 C1'        -8.4220  406.3520  -19.8560 C.3       1 AMP401      0.0000 
     14 N9         -8.0960  405.1530  -19.0540 N.pl3     1 AMP401      0.0000 
     15 C8         -8.1610  403.8800  -19.4820 C.2       1 AMP401      0.0000 
     16 N7         -7.8010  403.0150  -18.5040 N.2       1 AMP401      0.0000 
     17 C5         -7.4950  403.7470  -17.4170 C.ar      1 AMP401      0.0000 
     18 C6         -7.0400  403.4690  -16.0390 C.ar      1 AMP401      0.0000 
     19 N6         -6.8350  402.1960  -15.6230 N.pl3     1 AMP401      0.0000 
     20 N1         -6.8360  404.5240  -15.2180 N.ar      1 AMP401      0.0000 
     21 C2         -7.0380  405.7900  -15.6270 C.ar      1 AMP401      0.0000 
     22 N3         -7.4500  406.1170  -16.8620 N.ar      1 AMP401      0.0000 
     23 C4         -7.6880  405.1570  -17.7850 C.ar      1 AMP401      0.0000 
     24 H         -11.5513  405.3128  -21.9366 H         1 AMP401      0.0000 
     25 H         -10.7446  405.8460  -23.4215 H         1 AMP401      0.0000 
     26 H         -10.5137  407.5345  -21.7329 H         1 AMP401      0.0000 
     27 H          -8.4074  406.3571  -23.0653 H         1 AMP401      0.0000 
     28 H          -7.2979  405.4095  -21.3726 H         1 AMP401      0.0000 
     29 H          -8.2477  407.2385  -19.2888 H         1 AMP401      0.0000 
     30 H          -8.4339  403.6069  -20.3867 H         1 AMP401      0.0000 
     31 H          -6.5205  402.0865  -14.6801 H         1 AMP401      0.0000 
     32 H          -7.0164  401.4787  -16.2957 H         1 AMP401      0.0000 
     33 H          -6.8599  406.5790  -14.9278 H         1 AMP401      0.0000 
     34 H          -7.3925  408.4837  -22.2964 H         1 AMP401      0.0000 
     35 H          -6.0033  407.2839  -21.8461 H         1 AMP401      0.0000 
@<TRIPOS>BOND
     1    2    1 ar   
     2    3    1 ar   
     3    4    1 ar   
     4    5    1 1    
     5    6    5 1    
     6    7    6 1    
     7   24    6 1    
     8   25    6 1    
     9    8    7 1    
    10    9    7 1    
    11   26    7 1    
    12   13    8 1    
    13   10    9 1    
    14   11    9 1    
    15   27    9 1    
    16   34   10 1    
    17   12   11 1    
    18   13   11 1    
    19   28   11 1    
    20   35   12 1    
    21   14   13 1    
    22   29   13 1    
    23   15   14 1    
    24   23   14 1    
    25   16   15 2    
    26   30   15 1    
    27   17   16 1    
    28   18   17 ar   
    29   23   17 ar   
    30   19   18 1    
    31   20   18 ar   
    32   31   19 1    
    33   32   19 1    
    34   21   20 ar   
    35   22   21 ar   
    36   33   21 1    
    37   23   22 ar   
@<TRIPOS>SUBSTRUCTURE
     1 AMP401      1 GROUP   
@<TRIPOS>SET

