#    Name: 3kkj_FAD_1_INTS_M
#    Modification time : Mon Mar 24 19:44:07 2014

@<TRIPOS>MOLECULE
3kkj_FAD_1_INTS_M
  127     0    12     0     0
SMALL
NO_CHARGES


@<TRIPOS>ATOM
      1 N          39.0185   69.2290   42.6885 N.am      2 SEC2        0.0000 
      2 N          40.4110   69.9180   42.3890 N.am     10 SEL2        0.0000 
      3 N          37.6260   68.5400   42.9880 N.am      6 SEP2        0.0000 
      4 NZ         38.1255   70.6845   39.8145 N.4       3 LYC4        0.0000 
      5 NZ         38.5850   70.9720   40.9480 N.4      11 LYL4        0.0000 
      6 NZ         38.3050   70.5410   37.5200 N.4       7 LYP4        0.0000 
      7 N          38.1055   69.7560   41.9680 N.am      2 SEC2        0.0000 
      8 N          38.5850   70.9720   40.9480 N.am     10 SEL2        0.0000 
      9 N          38.1255   70.6845   39.8145 N.am      2 SEC2        0.0000 
     10 N          37.6660   70.3970   38.6810 N.am      6 SEP2        0.0000 
     11 CA         41.8050   71.1495   43.8840 C.3       4 GLC5        0.0000 
     12 CA         41.0140   72.6890   43.3800 C.3      12 GLL5        0.0000 
     13 CA         42.5960   69.6100   44.3880 C.3       8 GLP5        0.0000 
     14 CA         39.7070   71.1915   44.1785 C.3       4 GLC5        0.0000 
     15 CA         38.4000   69.6940   44.9770 C.3       8 GLP5        0.0000 
     16 CA         38.6920   71.5785   44.8540 C.3       4 GLC5        0.0000 
     17 CA         38.9840   73.4630   44.7310 C.3      12 GLL5        0.0000 
     18 O          39.0345   73.6370   47.3325 O.2       1 ALC1        0.0000 
     19 O          39.0050   72.6980   45.9390 O.2       9 ALL1        0.0000 
     20 O          39.0640   74.5760   48.7260 O.2       5 ALP1        0.0000 
     21 O          39.9440   73.2260   46.8770 O.2       1 ALC1        0.0000 
     22 O          40.8830   73.7540   47.8150 O.2       5 ALP1        0.0000 
     23 CA         36.9435   76.1465   45.1025 C.3       4 GLC5        0.0000 
     24 CA         38.4160   74.8740   44.9330 C.3      12 GLL5        0.0000 
     25 CA         35.4710   77.4190   45.2720 C.3       8 GLP5        0.0000 
     26 N          36.3135   75.6270   46.0530 N.am      2 SEC2        0.0000 
     27 N          37.7690   75.0400   46.1970 N.am     10 SEL2        0.0000 
     28 N          34.8580   76.2140   45.9090 N.am      6 SEP2        0.0000 
     29 O          38.4165   74.8080   47.4615 O.2       1 ALC1        0.0000 
     30 O          37.7690   75.0400   46.1970 O.2       9 ALL1        0.0000 
     31 CA         41.7040   75.4985   45.2100 C.3       4 GLC5        0.0000 
     32 CA         39.6830   75.7260   44.9260 C.3      12 GLL5        0.0000 
     33 CA         43.7250   75.2710   45.4940 C.3       8 GLP5        0.0000 
     34 CA         38.1540   76.6755   46.2265 C.3       4 GLC5        0.0000 
     35 CA         36.6250   77.6250   47.5270 C.3       8 GLP5        0.0000 
     36 CA         40.7690   76.8420   43.6000 C.3       4 GLC5        0.0000 
     37 CA         41.8550   77.9580   42.2740 C.3       8 GLP5        0.0000 
     38 CA         41.1750   81.3765   43.9625 C.3       4 GLC5        0.0000 
     39 CA         39.7020   80.5550   45.3900 C.3      12 GLL5        0.0000 
     40 CA         42.6480   82.1980   42.5350 C.3       8 GLP5        0.0000 
     41 O          39.6230   82.9900   45.3730 O.2       1 ALC1        0.0000 
     42 O          39.4180   81.7160   44.8050 O.2       9 ALL1        0.0000 
     43 O          39.8280   84.2640   45.9410 O.2       5 ALP1        0.0000 
     44 N          40.2785   81.7260   47.4545 N.am      2 SEC2        0.0000 
     45 N          40.3240   80.5480   46.5780 N.am     10 SEL2        0.0000 
     46 N          40.2330   82.9040   48.3310 N.am      6 SEP2        0.0000 
     47 CA         42.1780   79.6735   46.3295 C.3       4 GLC5        0.0000 
     48 CA         40.6430   79.4130   47.1720 C.3      12 GLL5        0.0000 
     49 CA         43.7130   79.9340   45.4870 C.3       8 GLP5        0.0000 
     50 CA         40.9370   77.9740   48.4640 C.3       4 GLC5        0.0000 
     51 CA         41.2310   76.5350   49.7560 C.3       8 GLP5        0.0000 
     52 CA         38.8640   79.0120   47.8850 C.3       4 GLC5        0.0000 
     53 CA         37.0850   78.6110   48.5980 C.3       8 GLP5        0.0000 
     54 CA         39.4445   80.7390   48.3295 C.3       4 GLC5        0.0000 
     55 CA         38.2460   82.0650   49.4870 C.3       8 GLP5        0.0000 
     56 CA         41.5935   81.4340   47.3160 C.3       4 GLC5        0.0000 
     57 CA         42.5440   83.4550   47.4600 C.3       8 GLP5        0.0000 
     58 N          39.6820   77.8115   48.0320 N.am      2 SEC2        0.0000 
     59 N          40.3710   78.2430   46.6210 N.am     10 SEL2        0.0000 
     60 N          38.9930   77.3800   49.4430 N.am      6 SEP2        0.0000 
     61 CA         38.1885   77.8985   46.4805 C.3       4 GLC5        0.0000 
     62 CA         39.7520   78.1720   45.4340 C.3      12 GLL5        0.0000 
     63 N          41.2615   62.3600   35.6295 N.am      2 SEC2        0.0000 
     64 N          40.2240   61.3320   35.3170 N.am     10 SEL2        0.0000 
     65 N          42.2990   63.3880   35.9420 N.am      6 SEP2        0.0000 
     66 N          35.4785   59.8675   37.2405 N.am      2 SEC2        0.0000 
     67 N          35.9170   59.8780   35.6790 N.am     10 SEL2        0.0000 
     68 N          35.0400   59.8570   38.8020 N.am      6 SEP2        0.0000 
     69 CA         29.8880   65.6225   36.7760 C.3       4 GLC5        0.0000 
     70 CA         31.4390   65.3140   38.0120 C.3      12 GLL5        0.0000 
     71 CA         28.3370   65.9310   35.5400 C.3       8 GLP5        0.0000 
     72 CA         30.5030   66.4760   38.8585 C.3       4 GLC5        0.0000 
     73 CA         29.5670   67.6380   39.7050 C.3       8 GLP5        0.0000 
     74 CA         32.9645   67.6455   36.5315 C.3       4 GLC5        0.0000 
     75 CA         33.8120   66.1120   37.6180 C.3      12 GLL5        0.0000 
     76 CA         32.1170   69.1790   35.4450 C.3       8 GLP5        0.0000 
     77 CA         34.9200   68.5805   38.5545 C.3       4 GLC5        0.0000 
     78 CA         33.4420   67.4560   38.2490 C.3      12 GLL5        0.0000 
     79 CA         36.3980   69.7050   38.8600 C.3       8 GLP5        0.0000 
     80 CA         32.3485   67.9745   39.5735 C.3       4 GLC5        0.0000 
     81 CA         31.2550   68.4930   40.8980 C.3       8 GLP5        0.0000 
     82 CA         33.3505   68.7430   37.1000 C.3       4 GLC5        0.0000 
     83 CA         33.2590   70.0300   35.9510 C.3       8 GLP5        0.0000 
     84 CA         35.7565   67.8020   38.0215 C.3       4 GLC5        0.0000 
     85 CA         35.1150   65.8990   37.1830 C.3      12 GLL5        0.0000 
     86 CA         36.4555   66.2400   34.9765 C.3       4 GLC5        0.0000 
     87 CA         37.7970   65.5380   36.3530 C.3      12 GLL5        0.0000 
     88 CA         35.1140   66.9420   33.6000 C.3       8 GLP5        0.0000 
     89 CA         37.9955   63.8705   38.7240 C.3       4 GLC5        0.0000 
     90 CA         38.7310   65.5470   37.5650 C.3      12 GLL5        0.0000 
     91 CA         37.2600   62.1940   39.8830 C.3       8 GLP5        0.0000 
     92 O          40.1920   67.9110   35.6005 O.2       1 ALC1        0.0000 
     93 O          40.2780   66.9200   36.2980 O.2       9 ALL1        0.0000 
     94 O          40.1060   68.9020   34.9030 O.2       5 ALP1        0.0000 
     95 N          44.6505   69.6835   41.3010 N.am      2 SEC2        0.0000 
     96 N          43.3840   70.3660   41.0230 N.am     10 SEL2        0.0000 
     97 N          45.9170   69.0010   41.5790 N.am      6 SEP2        0.0000 
     98 N          43.4370   70.6750   37.1130 N.am      2 SEC2        0.0000 
     99 N          42.8820   70.7460   38.5270 N.am     10 SEL2        0.0000 
    100 N          43.9920   70.6040   35.6990 N.am      6 SEP2        0.0000 
    101 N          40.2370   71.2235   38.8480 N.am      2 SEC2        0.0000 
    102 N          41.0380   71.1860   40.2080 N.am     10 SEL2        0.0000 
    103 N          39.4360   71.2610   37.4880 N.am      6 SEP2        0.0000 
    104 CA         42.2245   74.2430   44.6748 C.3       4 GLC5        0.0000 
    105 CA         37.7722   79.1593   45.7155 C.3       4 GLC5        0.0000 
    106 CA         35.9980   78.3690   46.3440 C.3       8 GLP5        0.0000 
    107 CA         40.7133   78.3580   43.6915 C.3       4 GLC5        0.0000 
    108 CA         39.3910   79.3440   44.7840 C.3      12 GLL5        0.0000 
    109 CA         41.6811   79.4974   45.3738 C.3       4 GLC5        0.0000 
    110 CA         35.0613   64.8427   34.8247 C.3       4 GLC5        0.0000 
    111 CA         34.5540   63.6340   36.5970 C.3      12 GLL5        0.0000 
    112 CA         35.1010   65.5380   33.0150 C.3       8 GLP5        0.0000 
    113 CA         33.0162   64.7646   39.3846 C.3       4 GLC5        0.0000 
    114 CA         33.2440   63.8520   37.0110 C.3      12 GLL5        0.0000 
    115 CA         33.0020   64.0270   41.1400 C.3       8 GLP5        0.0000 
    116 CA         34.7887   66.4737   35.5003 C.3       4 GLC5        0.0000 
    117 CA         35.2545   63.1290   38.1325 C.3       4 GLC5        0.0000 
    118 CA         35.4890   64.6610   36.6720 C.3      12 GLL5        0.0000 
    119 CA         35.8150   62.0560   39.5270 C.3       8 GLP5        0.0000 
    120 CA         38.3376   67.3195   39.4154 C.3       4 GLC5        0.0000 
    121 CA         40.5400   67.0100   38.6680 C.3      12 GLL5        0.0000 
    122 CA         36.8370   68.0360   40.7250 C.3       8 GLP5        0.0000 
    123 CA         42.6602   67.6590   38.2035 C.3       4 GLC5        0.0000 
    124 CA         44.5420   67.5810   37.7390 C.3       8 GLP5        0.0000 
    125 CA         41.4980   68.2389   36.7272 C.3       4 GLC5        0.0000 
    126 CA         41.0170   68.4640   38.6680 C.3      12 GLL5        0.0000 
    127 CA         42.4670   68.7820   35.0730 C.3       8 GLP5        0.0000 
@<TRIPOS>BOND
@<TRIPOS>SUBSTRUCTURE
     1 ALC1       18 GROUP        1 X    ALC  0     ROOT ALC X 1
     2 SEC2        1 GROUP        1 X    SEC  0     **** SEC X 2
     3 LYC4        4 GROUP        1 X    LYC  0     **** LYC X 4
     4 GLC5       11 GROUP        1 X    GLC  0     **** GLC X 6
     5 ALP1       20 GROUP        1 Y    ALP  0     ROOT ALP Y 8
     6 SEP2        3 GROUP        1 Y    SEP  0     **** SEP Y 9
     7 LYP4        6 GROUP        1 Y    LYP  0     **** LYP Y 11
     8 GLP5       13 GROUP        1 Y    GLP  0     **** GLP Y 13
     9 ALL1       19 GROUP        1 Z    ALL  0     ROOT ALL Z 15
    10 SEL2        2 GROUP        1 Z    SEL  0     **** SEL Z 16
    11 LYL4        5 GROUP        1 Z    LYL  0     **** LYL Z 18
    12 GLL5       12 GROUP        1 Z    GLL  0     **** GLL Z 20
@<TRIPOS>SET

