#    Name: 3kkj_FAD_1_ligand
#    Modification time : Mon Mar 24 19:44:07 2014

@<TRIPOS>MOLECULE
3kkj_FAD_1_ligand
   84    89     1     0     0
SMALL
NO_CHARGES


@<TRIPOS>ATOM
      1 PA         40.0900   71.0600   41.5050 P.3       1 FAD401      0.0000 
      2 O1A        40.4110   69.9180   42.3890 O.co2     1 FAD401      0.0000 
      3 O2A        38.5850   70.9720   40.9480 O.co2     1 FAD401      0.0000 
      4 O5B        40.1880   72.4930   42.2310 O.3       1 FAD401      0.0000 
      5 C5B        41.0140   72.6890   43.3800 C.3       1 FAD401      0.0000 
      6 C4B        40.4340   73.7410   44.3310 C.3       1 FAD401      0.0000 
      7 O4B        40.4220   75.1000   43.8660 O.3       1 FAD401      0.0000 
      8 C3B        38.9840   73.4630   44.7310 C.3       1 FAD401      0.0000 
      9 O3B        39.0050   72.6980   45.9390 O.3       1 FAD401      0.0000 
     10 C2B        38.4160   74.8740   44.9330 C.3       1 FAD401      0.0000 
     11 O2B        37.7690   75.0400   46.1970 O.3       1 FAD401      0.0000 
     12 C1B        39.6830   75.7260   44.9260 C.3       1 FAD401      0.0000 
     13 N9A        39.3810   77.1520   44.6630 N.pl3     1 FAD401      0.0000 
     14 C8A        38.7870   77.6590   43.5850 C.2       1 FAD401      0.0000 
     15 N7A        38.7940   78.9900   43.6500 N.2       1 FAD401      0.0000 
     16 C5A        39.3910   79.3440   44.7840 C.ar      1 FAD401      0.0000 
     17 C6A        39.7020   80.5550   45.3900 C.ar      1 FAD401      0.0000 
     18 N6A        39.4180   81.7160   44.8050 N.pl3     1 FAD401      0.0000 
     19 N1A        40.3240   80.5480   46.5780 N.ar      1 FAD401      0.0000 
     20 C2A        40.6430   79.4130   47.1720 C.ar      1 FAD401      0.0000 
     21 N3A        40.3710   78.2430   46.6210 N.ar      1 FAD401      0.0000 
     22 C4A        39.7520   78.1720   45.4340 C.ar      1 FAD401      0.0000 
     23 N1         38.6090   62.8610   35.8160 N.2       1 FAD401      0.0000 
     24 C2         39.0320   61.5590   35.5200 C.2       1 FAD401      0.0000 
     25 O2         40.2240   61.3320   35.3170 O.2       1 FAD401      0.0000 
     26 N3         38.0930   60.5220   35.4560 N.am      1 FAD401      0.0000 
     27 C4         36.7390   60.7920   35.6930 C.2       1 FAD401      0.0000 
     28 O4         35.9170   59.8780   35.6790 O.2       1 FAD401      0.0000 
     29 C4X        36.3260   62.0850   35.9950 C.2       1 FAD401      0.0000 
     30 N5         34.9730   62.3440   36.2540 N.2       1 FAD401      0.0000 
     31 C5X        34.5540   63.6340   36.5970 C.ar      1 FAD401      0.0000 
     32 C6         33.2440   63.8520   37.0110 C.ar      1 FAD401      0.0000 
     33 C7         32.8730   65.0890   37.5260 C.ar      1 FAD401      0.0000 
     34 C7M        31.4390   65.3140   38.0120 C.3       1 FAD401      0.0000 
     35 C8         33.8120   66.1120   37.6180 C.ar      1 FAD401      0.0000 
     36 C8M        33.4420   67.4560   38.2490 C.3       1 FAD401      0.0000 
     37 C9         35.1150   65.8990   37.1830 C.ar      1 FAD401      0.0000 
     38 C9A        35.4890   64.6610   36.6720 C.ar      1 FAD401      0.0000 
     39 N10        36.8250   64.4220   36.3280 N.pl3     1 FAD401      0.0000 
     40 C10        37.2540   63.1180   36.0530 C.2       1 FAD401      0.0000 
     41 C1'        37.7970   65.5380   36.3530 C.3       1 FAD401      0.0000 
     42 C2'        38.7310   65.5470   37.5650 C.3       1 FAD401      0.0000 
     43 O2'        37.9380   65.4910   38.7540 O.3       1 FAD401      0.0000 
     44 C3'        39.5420   66.8450   37.5220 C.3       1 FAD401      0.0000 
     45 O3'        40.2780   66.9200   36.2980 O.3       1 FAD401      0.0000 
     46 C4'        40.5400   67.0100   38.6680 C.3       1 FAD401      0.0000 
     47 O4'        39.9640   66.6810   39.9330 O.3       1 FAD401      0.0000 
     48 C5'        41.0170   68.4640   38.6680 C.3       1 FAD401      0.0000 
     49 O5'        41.8180   68.7690   39.8100 O.3       1 FAD401      0.0000 
     50 P          42.3480   70.2770   39.9700 P.3       1 FAD401      0.0000 
     51 O1P        43.3840   70.3660   41.0230 O.co2     1 FAD401      0.0000 
     52 O2P        42.8820   70.7460   38.5270 O.co2     1 FAD401      0.0000 
     53 O3P        41.0380   71.1860   40.2080 O.3       1 FAD401      0.0000 
     54 H          42.0294   73.0217   43.0982 H         1 FAD401      0.0000 
     55 H          41.1368   71.7540   43.9561 H         1 FAD401      0.0000 
     56 H          41.0088   73.6986   45.2841 H         1 FAD401      0.0000 
     57 H          38.5025   73.0036   43.9275 H         1 FAD401      0.0000 
     58 H          37.8390   75.1364   44.1022 H         1 FAD401      0.0000 
     59 H          40.1691   75.5813   45.8594 H         1 FAD401      0.0000 
     60 H          38.4016   77.1325   42.8522 H         1 FAD401      0.0000 
     61 H          39.0163   81.6615   43.8908 H         1 FAD401      0.0000 
     62 H          39.6318   82.5383   45.3323 H         1 FAD401      0.0000 
     63 H          41.1300   79.4402   48.1155 H         1 FAD401      0.0000 
     64 H          38.3952   59.5687   35.2365 H         1 FAD401      0.0000 
     65 H          32.5493   63.0971   36.9359 H         1 FAD401      0.0000 
     66 H          35.8060   66.6607   37.2393 H         1 FAD401      0.0000 
     67 H          37.2593   66.5098   36.3269 H         1 FAD401      0.0000 
     68 H          38.4244   65.5150   35.4365 H         1 FAD401      0.0000 
     69 H          39.3980   64.7218   37.4812 H         1 FAD401      0.0000 
     70 H          38.8408   67.6850   37.5730 H         1 FAD401      0.0000 
     71 H          41.4015   66.3900   38.4476 H         1 FAD401      0.0000 
     72 H          40.1186   69.1075   38.6190 H         1 FAD401      0.0000 
     73 H          41.5730   68.6304   37.7263 H         1 FAD401      0.0000 
     74 H          31.1963   64.6899   38.7547 H         1 FAD401      0.0000 
     75 H          31.3046   66.2438   38.3547 H         1 FAD401      0.0000 
     76 H          30.7723   65.1721   37.2803 H         1 FAD401      0.0000 
     77 H          34.2131   68.0927   38.2456 H         1 FAD401      0.0000 
     78 H          32.6918   67.9016   37.7606 H         1 FAD401      0.0000 
     79 H          33.1517   67.3523   39.2003 H         1 FAD401      0.0000 
     80 H          39.6612   73.1665   46.5305 H         1 FAD401      0.0000 
     81 H          38.3709   74.5901   46.8567 H         1 FAD401      0.0000 
     82 H          38.4885   65.9462   39.4538 H         1 FAD401      0.0000 
     83 H          39.7111   67.4747   35.6889 H         1 FAD401      0.0000 
     84 H          40.3718   67.3265   40.5787 H         1 FAD401      0.0000 
@<TRIPOS>BOND
     1    2    1 ar   
     2    3    1 ar   
     3    4    1 1    
     4   53    1 1    
     5    5    4 1    
     6    6    5 1    
     7   54    5 1    
     8   55    5 1    
     9    7    6 1    
    10    8    6 1    
    11   56    6 1    
    12   12    7 1    
    13    9    8 1    
    14   10    8 1    
    15   57    8 1    
    16   80    9 1    
    17   11   10 1    
    18   12   10 1    
    19   58   10 1    
    20   81   11 1    
    21   13   12 1    
    22   59   12 1    
    23   14   13 1    
    24   22   13 1    
    25   15   14 2    
    26   60   14 1    
    27   16   15 1    
    28   17   16 ar   
    29   22   16 ar   
    30   18   17 1    
    31   19   17 ar   
    32   61   18 1    
    33   62   18 1    
    34   20   19 ar   
    35   21   20 ar   
    36   63   20 1    
    37   22   21 ar   
    38   24   23 1    
    39   40   23 2    
    40   25   24 2    
    41   26   24 am   
    42   27   26 am   
    43   64   26 1    
    44   28   27 2    
    45   29   27 1    
    46   30   29 2    
    47   40   29 1    
    48   31   30 1    
    49   32   31 ar   
    50   38   31 ar   
    51   33   32 ar   
    52   65   32 1    
    53   34   33 1    
    54   35   33 ar   
    55   74   34 1    
    56   75   34 1    
    57   76   34 1    
    58   36   35 1    
    59   37   35 ar   
    60   77   36 1    
    61   78   36 1    
    62   79   36 1    
    63   38   37 ar   
    64   66   37 1    
    65   39   38 1    
    66   40   39 1    
    67   41   39 1    
    68   42   41 1    
    69   67   41 1    
    70   68   41 1    
    71   43   42 1    
    72   44   42 1    
    73   69   42 1    
    74   82   43 1    
    75   45   44 1    
    76   46   44 1    
    77   70   44 1    
    78   83   45 1    
    79   47   46 1    
    80   48   46 1    
    81   71   46 1    
    82   84   47 1    
    83   49   48 1    
    84   72   48 1    
    85   73   48 1    
    86   50   49 1    
    87   51   50 ar   
    88   52   50 ar   
    89   53   50 1    
@<TRIPOS>SUBSTRUCTURE
     1 FAD401      1 GROUP   
@<TRIPOS>SET

