#    Name: 1mux_WW7_2_INTS_M
#    Modification time : Tue Mar 25 12:06:12 2014

@<TRIPOS>MOLECULE
1mux_WW7_2_INTS_M
   46     0     9     0     0
SMALL
NO_CHARGES


@<TRIPOS>ATOM
      1 CA        -31.7075   -8.6120  -13.6975 C.3       3 GLC5        0.0000 
      2 CA        -33.7780   -8.0400  -14.1070 C.3       9 GLL5        0.0000 
      3 CA        -29.6370   -9.1840  -13.2880 C.3       6 GLP5        0.0000 
      4 CA        -34.1550   -9.6375  -13.9675 C.3       3 GLC5        0.0000 
      5 CA        -34.6210   -8.0390  -15.2920 C.3       9 GLL5        0.0000 
      6 CA        -33.6890  -11.2360  -12.6430 C.3       6 GLP5        0.0000 
      7 CA        -30.5940   -8.8190  -17.7090 C.3       3 GLC5        0.0000 
      8 CA        -32.3810   -8.7330  -16.8430 C.3       9 GLL5        0.0000 
      9 CA        -28.8070   -8.9050  -18.5750 C.3       6 GLP5        0.0000 
     10 CA        -33.0595   -7.0060  -17.6940 C.3       3 GLC5        0.0000 
     11 CA        -33.7380   -5.2790  -18.5450 C.3       6 GLP5        0.0000 
     12 CA        -36.1990   -5.5975  -11.0450 C.3       3 GLC5        0.0000 
     13 CA        -37.7660   -4.7240  -12.0160 C.3       9 GLL5        0.0000 
     14 CA        -34.6320   -6.4710  -10.0740 C.3       6 GLP5        0.0000 
     15 OD1       -38.1855    2.8775   -8.7575 O.co2     2 ASC3        0.0000 
     16 OD1       -36.9880    1.5540   -8.0320 O.co2     8 ASL3        0.0000 
     17 OD1       -39.3830    4.2010   -9.4830 O.co2     5 ASP3        0.0000 
     18 O         -36.1505    2.8720   -7.9830 O.2       1 ALC1        0.0000 
     19 O         -36.9880    1.5540   -8.0320 O.2       7 ALL1        0.0000 
     20 O         -35.3130    4.1900   -7.9340 O.2       4 ALP1        0.0000 
     21 CA        -34.3070   -9.4509  -12.8563 C.3       3 GLC5        0.0000 
     22 CA        -34.3580   -7.7430  -12.8070 C.3       9 GLL5        0.0000 
     23 CA        -35.3140   -6.3387  -16.2895 C.3       3 GLC5        0.0000 
     24 CA        -36.1040   -7.7230  -15.1680 C.3       9 GLL5        0.0000 
     25 CA        -34.1100   -4.9390  -16.8090 C.3       6 GLP5        0.0000 
     26 CA        -32.1275   -9.9992  -16.6545 C.3       3 GLC5        0.0000 
     27 CA        -34.0570   -8.3680  -16.5950 C.3       9 GLL5        0.0000 
     28 CA        -31.0360  -11.4480  -16.5900 C.3       6 GLP5        0.0000 
     29 CA        -33.2965   -8.0687  -18.6290 C.3       3 GLC5        0.0000 
     30 CA        -33.3740   -7.5870  -20.5390 C.3       6 GLP5        0.0000 
     31 CA        -34.1191   -6.5714  -16.2281 C.3       3 GLC5        0.0000 
     32 CA        -34.4988   -7.9140  -19.1260 C.3       3 GLC5        0.0000 
     33 CA        -34.9120   -8.3950  -17.7670 C.3       9 GLL5        0.0000 
     34 CA        -34.6808   -6.7600  -18.1290 C.3       3 GLC5        0.0000 
     35 CA        -36.7952   -5.7575  -15.6161 C.3       3 GLC5        0.0000 
     36 CA        -36.9320   -7.7540  -16.3720 C.3       9 GLL5        0.0000 
     37 CA        -36.9340   -3.8510  -15.7940 C.3       6 GLP5        0.0000 
     38 CA        -37.4297   -3.9152  -13.8810 C.3       3 GLC5        0.0000 
     39 CA        -36.0099   -3.5031  -12.3725 C.3       3 GLC5        0.0000 
     40 CA        -37.4220   -2.6490  -10.6760 C.3       9 GLL5        0.0000 
     41 CA        -34.3460   -3.6920  -13.4230 C.3       6 GLP5        0.0000 
     42 CA        -36.6960    1.8020   -9.8290 C.3       3 GLC5        0.0000 
     43 CA        -37.1660   -0.5820   -9.3030 C.3       9 GLL5        0.0000 
     44 CA        -36.0060    3.4590  -10.4260 C.3       6 GLP5        0.0000 
     45 CA        -35.5472   -1.5894  -10.2892 C.3       3 GLC5        0.0000 
     46 CA        -33.7010   -1.9300  -10.6220 C.3       6 GLP5        0.0000 
@<TRIPOS>BOND
@<TRIPOS>SUBSTRUCTURE
     1 ALC1       18 GROUP        1 X    ALC  0     ROOT ALC X 1
     2 ASC3       15 GROUP        1 X    ASC  0     **** ASC X 3
     3 GLC5        1 GROUP        1 X    GLC  0     **** GLC X 6
     4 ALP1       20 GROUP        1 Y    ALP  0     ROOT ALP Y 8
     5 ASP3       17 GROUP        1 Y    ASP  0     **** ASP Y 10
     6 GLP5        3 GROUP        1 Y    GLP  0     **** GLP Y 13
     7 ALL1       19 GROUP        1 Z    ALL  0     ROOT ALL Z 15
     8 ASL3       16 GROUP        1 Z    ASL  0     **** ASL Z 17
     9 GLL5        2 GROUP        1 Z    GLL  0     **** GLL Z 20
@<TRIPOS>SET

