#    Name: 1mux_WW7_2_ligand
#    Modification time : Tue Mar 25 12:06:12 2014

@<TRIPOS>MOLECULE
1mux_WW7_2_ligand
   44    45     1     0     0
SMALL
NO_CHARGES


@<TRIPOS>ATOM
      1 S1        -38.3460   -6.9920  -13.4970 S.o2      1 WW7154      0.0000 
      2 O1        -38.7270   -7.5690  -12.2420 O.2       1 WW7154      0.0000 
      3 O2        -39.1880   -7.1860  -14.6370 O.2       1 WW7154      0.0000 
      4 N1        -38.4130   -5.2780  -13.2060 N.pl3     1 WW7154      0.0000 
      5 C4        -33.7780   -8.0400  -14.1070 C.ar      1 WW7154      0.0000 
      6 C3        -34.3580   -7.7430  -12.8070 C.ar      1 WW7154      0.0000 
      7 C2        -35.7820   -7.4400  -12.6820 C.ar      1 WW7154      0.0000 
      8 C1        -36.6580   -7.4250  -13.8410 C.ar      1 WW7154      0.0000 
      9 C9        -36.1040   -7.7230  -15.1680 C.ar      1 WW7154      0.0000 
     10 C10       -34.6210   -8.0390  -15.2920 C.ar      1 WW7154      0.0000 
     11 CL1       -32.3810   -8.7330  -16.8430 Cl        1 WW7154      0.0000 
     12 C5        -34.0570   -8.3680  -16.5950 C.ar      1 WW7154      0.0000 
     13 C6        -34.9120   -8.3950  -17.7670 C.ar      1 WW7154      0.0000 
     14 C7        -36.3350   -8.0870  -17.6590 C.ar      1 WW7154      0.0000 
     15 C8        -36.9320   -7.7540  -16.3720 C.ar      1 WW7154      0.0000 
     16 C11       -37.7660   -4.7240  -12.0160 C.3       1 WW7154      0.0000 
     17 C12       -38.0850   -3.2350  -11.9200 C.3       1 WW7154      0.0000 
     18 C14       -37.8200   -1.1820  -10.5440 C.3       1 WW7154      0.0000 
     19 C13       -37.4220   -2.6490  -10.6760 C.3       1 WW7154      0.0000 
     20 C15       -37.1660   -0.5820   -9.3030 C.3       1 WW7154      0.0000 
     21 C16       -37.6060    0.8720   -9.1610 C.3       1 WW7154      0.0000 
     22 N2        -36.9880    1.5540   -8.0320 N.4       1 WW7154      0.0000 
     23 H         -38.8965   -4.8031  -13.8874 H         1 WW7154      0.0000 
     24 H         -32.7968   -8.2455  -14.1864 H         1 WW7154      0.0000 
     25 H         -33.7750   -7.7454  -11.9828 H         1 WW7154      0.0000 
     26 H         -36.1647   -7.2357  -11.7625 H         1 WW7154      0.0000 
     27 H         -34.5215   -8.6293  -18.6706 H         1 WW7154      0.0000 
     28 H         -36.9133   -8.1053  -18.4892 H         1 WW7154      0.0000 
     29 H         -37.9136   -7.5452  -16.3103 H         1 WW7154      0.0000 
     30 H         -36.6843   -4.8418  -12.0701 H         1 WW7154      0.0000 
     31 H         -38.1282   -5.2129  -11.1123 H         1 WW7154      0.0000 
     32 H         -39.1583   -3.1001  -11.8528 H         1 WW7154      0.0000 
     33 H         -37.7081   -2.7283  -12.8009 H         1 WW7154      0.0000 
     34 H         -38.8981   -1.1081  -10.4542 H         1 WW7154      0.0000 
     35 H         -37.4904   -0.6391  -11.4228 H         1 WW7154      0.0000 
     36 H         -36.3473   -2.7236  -10.7722 H         1 WW7154      0.0000 
     37 H         -37.7538   -3.1925   -9.8017 H         1 WW7154      0.0000 
     38 H         -36.0900   -0.6241   -9.4069 H         1 WW7154      0.0000 
     39 H         -37.4747   -1.1388   -8.4283 H         1 WW7154      0.0000 
     40 H         -38.7100    0.8859   -9.0685 H         1 WW7154      0.0000 
     41 H         -37.3687    1.3934  -10.1093 H         1 WW7154      0.0000 
     42 H         -36.4538    2.3473   -8.3244 H         1 WW7154      0.0000 
     43 H         -37.6697    1.8841   -7.3792 H         1 WW7154      0.0000 
     44 H         -36.3677    0.9523   -7.5289 H         1 WW7154      0.0000 
@<TRIPOS>BOND
     1    2    1 2    
     2    3    1 2    
     3    4    1 1    
     4    8    1 1    
     5   16    4 1    
     6   23    4 1    
     7    6    5 ar   
     8   10    5 ar   
     9   24    5 1    
    10    7    6 ar   
    11   25    6 1    
    12    8    7 ar   
    13   26    7 1    
    14    9    8 ar   
    15   10    9 ar   
    16   15    9 ar   
    17   12   10 ar   
    18   12   11 1    
    19   13   12 ar   
    20   14   13 ar   
    21   27   13 1    
    22   15   14 ar   
    23   28   14 1    
    24   29   15 1    
    25   17   16 1    
    26   30   16 1    
    27   31   16 1    
    28   19   17 1    
    29   32   17 1    
    30   33   17 1    
    31   19   18 1    
    32   20   18 1    
    33   34   18 1    
    34   35   18 1    
    35   36   19 1    
    36   37   19 1    
    37   21   20 1    
    38   38   20 1    
    39   39   20 1    
    40   22   21 1    
    41   40   21 1    
    42   41   21 1    
    43   42   22 1    
    44   43   22 1    
    45   44   22 1    
@<TRIPOS>SUBSTRUCTURE
     1 WW7154      1 GROUP   
@<TRIPOS>SET

