#    Name: 3ttj_JBI_1_INTS_M
#    Modification time : Mon Mar 24 20:56:01 2014

@<TRIPOS>MOLECULE
3ttj_JBI_1_INTS_M
   93     0     9     0     0
SMALL
NO_CHARGES


@<TRIPOS>ATOM
      1 CA         22.6785    7.3865   33.0780 C.3       3 GLC5        0.0000 
      2 CA         21.1560    8.4700   31.8570 C.3       9 GLL5        0.0000 
      3 CA         24.2010    6.3030   34.2990 C.3       6 GLP5        0.0000 
      4 CA         22.1240    9.3680   33.6500 C.3       3 GLC5        0.0000 
      5 CA         23.0920   10.2660   35.4430 C.3       6 GLP5        0.0000 
      6 CA         20.0445    9.1955   35.6295 C.3       3 GLC5        0.0000 
      7 CA         19.8610   10.9390   35.3800 C.3       9 GLL5        0.0000 
      8 CA         20.2280    7.4520   35.8790 C.3       6 GLP5        0.0000 
      9 CA         20.4035   10.5595   37.5280 C.3       3 GLC5        0.0000 
     10 CA         20.9460   10.1800   39.6760 C.3       6 GLP5        0.0000 
     11 CA         18.1330    9.9140   35.2945 C.3       3 GLC5        0.0000 
     12 CA         16.4050    8.8890   35.2090 C.3       6 GLP5        0.0000 
     13 N          19.4655    4.6580   32.2940 N.am      2 SEC2        0.0000 
     14 N          20.1700    5.9710   32.1430 N.am      8 SEL2        0.0000 
     15 N          18.7610    3.3450   32.4450 N.am      5 SEP2        0.0000 
     16 N          27.4205    4.8145   27.6835 N.am      2 SEC2        0.0000 
     17 N          27.1140    5.0640   29.0550 N.am      8 SEL2        0.0000 
     18 N          27.7270    4.5650   26.3120 N.am      5 SEP2        0.0000 
     19 CA         19.0020    5.2060   33.7670 C.3       3 GLC5        0.0000 
     20 CA         19.4760    6.9720   32.6510 C.3       9 GLL5        0.0000 
     21 CA         18.5280    3.4400   34.8830 C.3       6 GLP5        0.0000 
     22 CA         18.2215    5.7530   31.6545 C.3       3 GLC5        0.0000 
     23 CA         16.9670    4.5340   30.6580 C.3       6 GLP5        0.0000 
     24 CA         22.7685    6.2385   32.9030 C.3       3 GLC5        0.0000 
     25 CA         21.3360    6.1740   31.5070 C.3       9 GLL5        0.0000 
     26 CA         21.5585    4.8940   33.2390 C.3       3 GLC5        0.0000 
     27 CA         21.7810    3.6140   34.9710 C.3       6 GLP5        0.0000 
     28 CA         19.7310    4.9520   30.8235 C.3       3 GLC5        0.0000 
     29 CA         18.1260    3.7300   30.1400 C.3       6 GLP5        0.0000 
     30 CA         20.5785    6.9070   29.8830 C.3       3 GLC5        0.0000 
     31 CA         19.8210    7.6400   28.2590 C.3       6 GLP5        0.0000 
     32 O          21.4300    3.6630   31.3255 O.2       1 ALC1        0.0000 
     33 O          21.9740    5.1110   31.0090 O.2       7 ALL1        0.0000 
     34 O          20.8860    2.2150   31.6420 O.2       4 ALP1        0.0000 
     35 CA         23.0645   11.4645   32.8650 C.3       3 GLC5        0.0000 
     36 CA         22.5480   10.4690   31.2970 C.3       9 GLL5        0.0000 
     37 CA         23.5810   12.4600   34.4330 C.3       6 GLP5        0.0000 
     38 CA         21.4335   12.3535   33.9540 C.3       3 GLC5        0.0000 
     39 CA         19.2860   12.2470   33.4750 C.3       9 GLL5        0.0000 
     40 CA         24.6540    8.4255   32.9765 C.3       3 GLC5        0.0000 
     41 CA         23.8390    9.7120   31.6240 C.3       9 GLL5        0.0000 
     42 CA         25.4690    7.1390   34.3290 C.3       6 GLP5        0.0000 
     43 CA         24.0220   10.4685   33.3515 C.3       3 GLC5        0.0000 
     44 CA         24.2050   11.2250   35.0790 C.3       6 GLP5        0.0000 
     45 CA         23.3635    8.8965   27.4735 C.3       3 GLC5        0.0000 
     46 CA         23.7390    9.8110   29.2450 C.3       9 GLL5        0.0000 
     47 CA         22.9880    7.9820   25.7020 C.3       6 GLP5        0.0000 
     48 CA         21.1290    9.0415   29.0065 C.3       3 GLC5        0.0000 
     49 CA         22.4370   10.4430   29.7540 C.3       9 GLL5        0.0000 
     50 CA         15.2090   13.3255   35.7320 C.3       3 GLC5        0.0000 
     51 CA         17.2580   13.4490   34.9820 C.3       9 GLL5        0.0000 
     52 CA         13.1600   13.2020   36.4820 C.3       6 GLP5        0.0000 
     53 CA         21.7230    6.8395   28.9125 C.3       3 GLC5        0.0000 
     54 CA         23.6250    6.0390   29.5660 C.3       9 GLL5        0.0000 
     55 CA         26.0820    5.2790   32.1725 C.3       3 GLC5        0.0000 
     56 CA         25.4380    4.1560   30.5070 C.3       9 GLL5        0.0000 
     57 CA         26.7260    6.4020   33.8380 C.3       6 GLP5        0.0000 
     58 CA         19.6750    9.7933   30.7843 C.3       3 GLC5        0.0000 
     59 CA         18.7930   11.2180   29.3800 C.3       6 GLP5        0.0000 
     60 CA         21.2820   10.8377   35.2680 C.3       3 GLC5        0.0000 
     61 CA         19.0830   11.8800   34.8060 C.3       9 GLL5        0.0000 
     62 CA         18.0575    8.6273   33.0728 C.3       3 GLC5        0.0000 
     63 CA         19.9580    8.2670   32.5200 C.3       9 GLL5        0.0000 
     64 CA         16.3980    9.6350   33.5600 C.3       6 GLP5        0.0000 
     65 CA         20.1223    7.5611   34.1494 C.3       3 GLC5        0.0000 
     66 CA         19.9187    7.6551   30.3394 C.3       3 GLC5        0.0000 
     67 CA         20.6427   10.8370   29.9528 C.3       3 GLC5        0.0000 
     68 CA         23.9413    5.4770   32.5322 C.3       3 GLC5        0.0000 
     69 CA         23.2270    5.1230   30.5340 C.3       9 GLL5        0.0000 
     70 CA         23.1290    4.4440   28.5120 C.3       3 GLC5        0.0000 
     71 CA         22.8320    3.3070   26.9740 C.3       6 GLP5        0.0000 
     72 CA         19.8745   14.1775   34.1172 C.3       3 GLC5        0.0000 
     73 CA         20.8690   15.6170   35.0430 C.3       6 GLP5        0.0000 
     74 CA         17.7912   10.8492   33.8503 C.3       3 GLC5        0.0000 
     75 CA         18.8365   11.9780   31.2858 C.3       3 GLC5        0.0000 
     76 CA         25.9040   10.3045   31.7127 C.3       3 GLC5        0.0000 
     77 CA         27.5310   10.7640   32.4100 C.3       6 GLP5        0.0000 
     78 CA         19.9232   13.0101   36.1485 C.3       3 GLC5        0.0000 
     79 CA         21.0730   14.0790   36.9730 C.3       6 GLP5        0.0000 
     80 CA         17.2462   13.8590   36.9342 C.3       3 GLC5        0.0000 
     81 CA         18.0750   12.4730   35.5550 C.3       9 GLL5        0.0000 
     82 CA         16.8260   14.7570   38.6000 C.3       6 GLP5        0.0000 
     83 CA         17.0322   11.2980   34.4143 C.3       3 GLC5        0.0000 
     84 CA         19.1142   14.6278   34.6812 C.3       3 GLC5        0.0000 
     85 CA         17.1827   11.5817   33.4213 C.3       3 GLC5        0.0000 
     86 CA         17.4610   13.8280   33.6570 C.3       9 GLL5        0.0000 
     87 CA         16.0674   13.2204   33.4154 C.3       3 GLC5        0.0000 
     88 CA         18.4740   13.2290   32.9080 C.3       9 GLL5        0.0000 
     89 CA         14.2180   13.0070   33.2170 C.3       6 GLP5        0.0000 
     90 CA         23.6320    7.0060   27.5110 C.3       3 GLC5        0.0000 
     91 CA         24.1070    4.4280   28.1412 C.3       3 GLC5        0.0000 
     92 CA         24.9270    6.0210   29.0740 C.3       9 GLL5        0.0000 
     93 CA         23.8095    3.7372   28.8630 C.3       3 GLC5        0.0000 
@<TRIPOS>BOND
@<TRIPOS>SUBSTRUCTURE
     1 ALC1       32 GROUP        1 X    ALC  0     ROOT ALC X 1
     2 SEC2       13 GROUP        1 X    SEC  0     **** SEC X 2
     3 GLC5        1 GROUP        1 X    GLC  0     **** GLC X 6
     4 ALP1       34 GROUP        1 Y    ALP  0     ROOT ALP Y 8
     5 SEP2       15 GROUP        1 Y    SEP  0     **** SEP Y 9
     6 GLP5        3 GROUP        1 Y    GLP  0     **** GLP Y 13
     7 ALL1       33 GROUP        1 Z    ALL  0     ROOT ALL Z 15
     8 SEL2       14 GROUP        1 Z    SEL  0     **** SEL Z 16
     9 GLL5        2 GROUP        1 Z    GLL  0     **** GLL Z 20
@<TRIPOS>SET

