#    Name: 3ttj_JBI_1_ligand
#    Modification time : Mon Mar 24 20:56:02 2014

@<TRIPOS>MOLECULE
3ttj_JBI_1_ligand
   54    58     1     0     0
SMALL
NO_CHARGES


@<TRIPOS>ATOM
      1 C1         21.1560    8.4700   31.8570 C.ar      1 JBI465      0.0000 
      2 F1         19.8610   10.9390   35.3800 F         1 JBI465      0.0000 
      3 N1         20.1700    5.9710   32.1430 N.ar      1 JBI465      0.0000 
      4 O1         27.1140    5.0640   29.0550 O.3       1 JBI465      0.0000 
      5 C2         19.9580    8.2670   32.5200 C.ar      1 JBI465      0.0000 
      6 N2         21.8260    7.4190   31.3590 N.ar      1 JBI465      0.0000 
      7 C3         19.4760    6.9720   32.6510 C.ar      1 JBI465      0.0000 
      8 N3         21.3810    9.7820   31.8910 N.pl3     1 JBI465      0.0000 
      9 C4         21.3360    6.1740   31.5070 C.ar      1 JBI465      0.0000 
     10 N4         19.4990    9.4550   32.9200 N.2       1 JBI465      0.0000 
     11 C5         20.3730   10.3770   32.5260 C.2       1 JBI465      0.0000 
     12 N5         21.9740    5.1110   31.0090 N.pl3     1 JBI465      0.0000 
     13 C6         22.5480   10.4690   31.2970 C.3       1 JBI465      0.0000 
     14 N6         20.2660   11.6930   32.7460 N.pl3     1 JBI465      0.0000 
     15 C7         23.2270    5.1230   30.5340 C.ar      1 JBI465      0.0000 
     16 C8         19.2860   12.2470   33.4750 C.ar      1 JBI465      0.0000 
     17 C9         23.8390    9.7120   31.6240 C.3       1 JBI465      0.0000 
     18 C10        24.7150    9.9780   30.4070 C.3       1 JBI465      0.0000 
     19 C11        23.7390    9.8110   29.2450 C.3       1 JBI465      0.0000 
     20 C12        22.4370   10.4430   29.7540 C.3       1 JBI465      0.0000 
     21 C13        19.0830   11.8800   34.8060 C.ar      1 JBI465      0.0000 
     22 C14        18.0750   12.4730   35.5550 C.ar      1 JBI465      0.0000 
     23 C15        17.2580   13.4490   34.9820 C.ar      1 JBI465      0.0000 
     24 C16        17.4610   13.8280   33.6570 C.ar      1 JBI465      0.0000 
     25 C17        18.4740   13.2290   32.9080 C.ar      1 JBI465      0.0000 
     26 C18        23.6250    6.0390   29.5660 C.ar      1 JBI465      0.0000 
     27 C19        24.9270    6.0210   29.0740 C.ar      1 JBI465      0.0000 
     28 C20        25.8370    5.0770   29.5430 C.ar      1 JBI465      0.0000 
     29 C21        25.4380    4.1560   30.5070 C.ar      1 JBI465      0.0000 
     30 C22        24.1360    4.1790   30.9970 C.ar      1 JBI465      0.0000 
     31 C23        27.9360    4.0870   29.7190 C.3       1 JBI465      0.0000 
     32 H          18.5786    6.8256   33.1473 H         1 JBI465      0.0000 
     33 H          21.4423    4.1725   30.9870 H         1 JBI465      0.0000 
     34 H          22.6352   11.4660   31.6138 H         1 JBI465      0.0000 
     35 H          21.0025   12.3397   32.3170 H         1 JBI465      0.0000 
     36 H          23.6344    8.6771   31.7041 H         1 JBI465      0.0000 
     37 H          24.2852   10.1262   32.4893 H         1 JBI465      0.0000 
     38 H          25.4764    9.2474   30.3434 H         1 JBI465      0.0000 
     39 H          25.0760   10.9713   30.4320 H         1 JBI465      0.0000 
     40 H          23.5819    8.7798   29.0502 H         1 JBI465      0.0000 
     41 H          24.0887   10.3480   28.3991 H         1 JBI465      0.0000 
     42 H          22.3538   11.4418   29.3901 H         1 JBI465      0.0000 
     43 H          21.6064    9.8372   29.4709 H         1 JBI465      0.0000 
     44 H          17.9276   12.1946   36.5342 H         1 JBI465      0.0000 
     45 H          16.5126   13.8840   35.5346 H         1 JBI465      0.0000 
     46 H          16.8655   14.5481   33.2309 H         1 JBI465      0.0000 
     47 H          18.6232   13.5140   31.9295 H         1 JBI465      0.0000 
     48 H          22.9530    6.7347   29.2109 H         1 JBI465      0.0000 
     49 H          25.2174    6.7052   28.3636 H         1 JBI465      0.0000 
     50 H          26.1066    3.4574   30.8576 H         1 JBI465      0.0000 
     51 H          23.8444    3.4914   31.7078 H         1 JBI465      0.0000 
     52 H          28.8689    4.0802   29.3590 H         1 JBI465      0.0000 
     53 H          28.0021    4.2631   30.7012 H         1 JBI465      0.0000 
     54 H          27.5734    3.1614   29.6109 H         1 JBI465      0.0000 
@<TRIPOS>BOND
     1    5    1 ar   
     2    6    1 ar   
     3    8    1 1    
     4   21    2 1    
     5    7    3 ar   
     6    9    3 ar   
     7   28    4 1    
     8   31    4 1    
     9    7    5 ar   
    10   10    5 1    
    11    9    6 ar   
    12   32    7 1    
    13   11    8 1    
    14   13    8 1    
    15   12    9 1    
    16   11   10 2    
    17   14   11 1    
    18   15   12 1    
    19   33   12 1    
    20   17   13 1    
    21   20   13 1    
    22   34   13 1    
    23   16   14 1    
    24   35   14 1    
    25   26   15 ar   
    26   30   15 ar   
    27   21   16 ar   
    28   25   16 ar   
    29   18   17 1    
    30   36   17 1    
    31   37   17 1    
    32   19   18 1    
    33   38   18 1    
    34   39   18 1    
    35   20   19 1    
    36   40   19 1    
    37   41   19 1    
    38   42   20 1    
    39   43   20 1    
    40   22   21 ar   
    41   23   22 ar   
    42   44   22 1    
    43   24   23 ar   
    44   45   23 1    
    45   25   24 ar   
    46   46   24 1    
    47   47   25 1    
    48   27   26 ar   
    49   48   26 1    
    50   28   27 ar   
    51   49   27 1    
    52   29   28 ar   
    53   30   29 ar   
    54   50   29 1    
    55   51   30 1    
    56   52   31 1    
    57   53   31 1    
    58   54   31 1    
@<TRIPOS>SUBSTRUCTURE
     1 JBI465      1 GROUP   
@<TRIPOS>SET

