#    Name: 1d4h_BEH_1_INTS_M
#    Modification time : Mon Mar 24 21:29:23 2014

@<TRIPOS>MOLECULE
1d4h_BEH_1_INTS_M
  116     0     9     0     0
SMALL
NO_CHARGES


@<TRIPOS>ATOM
      1 O          14.5200   23.6485    2.7765 O.2       1 ALC1        0.0000 
      2 O          14.3650   22.6670    3.6600 O.2       7 ALL1        0.0000 
      3 O          14.6750   24.6300    1.8930 O.2       4 ALP1        0.0000 
      4 CA         13.6620   22.9765    9.1670 C.3       3 GLC5        0.0000 
      5 CA         15.6190   23.4100    8.2480 C.3       9 GLL5        0.0000 
      6 CA         11.7050   22.5430   10.0860 C.3       6 GLP5        0.0000 
      7 CA         13.6345   21.8735    9.8345 C.3       3 GLC5        0.0000 
      8 CA         15.5640   21.2040    9.5830 C.3       9 GLL5        0.0000 
      9 CA         15.9165   19.5460   11.9300 C.3       3 GLC5        0.0000 
     10 CA         16.2100   20.0020   10.0420 C.3       9 GLL5        0.0000 
     11 CA         15.6230   19.0900   13.8180 C.3       6 GLP5        0.0000 
     12 O          17.3805   21.8790    5.3710 O.2       1 ALC1        0.0000 
     13 O          16.3950   20.7770    5.5250 O.2       7 ALL1        0.0000 
     14 O          18.3660   22.9810    5.2170 O.2       4 ALP1        0.0000 
     15 CA         13.5835   19.1325    3.2075 C.3       3 GLC5        0.0000 
     16 CA         15.7100   19.3340    2.8860 C.3       9 GLL5        0.0000 
     17 CA         11.4570   18.9310    3.5290 C.3       6 GLP5        0.0000 
     18 CA         17.2850   15.3650    2.4630 C.3       3 GLC5        0.0000 
     19 CA         17.6910   17.2750    2.3880 C.3       9 GLL5        0.0000 
     20 CA         16.8790   13.4550    2.5380 C.3       6 GLP5        0.0000 
     21 CA         16.7085   15.8925    3.6280 C.3       3 GLC5        0.0000 
     22 CA         17.5630   17.8790    3.6860 C.3       9 GLL5        0.0000 
     23 CA         15.8540   13.9060    3.5700 C.3       6 GLP5        0.0000 
     24 CA         20.1375   18.2600    4.0525 C.3       3 GLC5        0.0000 
     25 CA         18.3590   17.6050    4.9160 C.3       9 GLL5        0.0000 
     26 CA         21.9160   18.9150    3.1890 C.3       6 GLP5        0.0000 
     27 N          19.5965   20.2480    4.0495 N.am      2 SEC2        0.0000 
     28 N          19.0070   19.9050    5.4410 N.am      8 SEL2        0.0000 
     29 N          20.1860   20.5910    2.6580 N.am      5 SEP2        0.0000 
     30 O          18.6865   21.4430    5.3290 O.2       1 ALC1        0.0000 
     31 O          19.0070   19.9050    5.4410 O.2       7 ALL1        0.0000 
     32 N          14.9660   25.8020    5.6220 N.am      2 SEC2        0.0000 
     33 N          14.3870   25.2310    4.4320 N.am      8 SEL2        0.0000 
     34 N          15.5450   26.3730    6.8120 N.am      5 SEP2        0.0000 
     35 O          14.5310   24.9305    3.1625 O.2       1 ALC1        0.0000 
     36 O          14.3870   25.2310    4.4320 O.2       7 ALL1        0.0000 
     37 CA         12.7785   26.3530    3.3670 C.3       3 GLC5        0.0000 
     38 CA         12.0260   24.5700    4.2790 C.3       9 GLL5        0.0000 
     39 CA         13.5310   28.1360    2.4550 C.3       6 GLP5        0.0000 
     40 CA          6.6060   24.1730    0.3160 C.3       3 GLC5        0.0000 
     41 CA          6.7800   24.4030    2.4590 C.3       9 GLL5        0.0000 
     42 CA          6.4320   23.9430   -1.8270 C.3       6 GLP5        0.0000 
     43 O          10.7100   26.6340    4.4055 O.2       1 ALC1        0.0000 
     44 O          10.0410   25.5750    5.3910 O.2       7 ALL1        0.0000 
     45 O          11.3790   27.6930    3.4200 O.2       4 ALP1        0.0000 
     46 O           9.2925   26.8070    5.0200 O.2       1 ALC1        0.0000 
     47 O           8.5440   28.0390    4.6490 O.2       4 ALP1        0.0000 
     48 CA          8.4330   23.5060    6.2945 C.3       3 GLC5        0.0000 
     49 CA          8.9490   25.5690    6.3440 C.3       9 GLL5        0.0000 
     50 CA          7.9170   21.4430    6.2450 C.3       6 GLP5        0.0000 
     51 CA         10.4195   27.7755    6.5915 C.3       3 GLC5        0.0000 
     52 CA          8.9270   26.5240    7.4150 C.3       9 GLL5        0.0000 
     53 CA         11.9120   29.0270    5.7680 C.3       6 GLP5        0.0000 
     54 CA          6.5050   26.5945    9.2740 C.3       3 GLC5        0.0000 
     55 CA          7.7390   27.3260    7.6450 C.3       9 GLL5        0.0000 
     56 CA          5.2710   25.8630   10.9030 C.3       6 GLP5        0.0000 
     57 CA          6.3135   27.7705   10.0475 C.3       3 GLC5        0.0000 
     58 CA          7.7190   28.2790    8.7250 C.3       9 GLL5        0.0000 
     59 CA          4.9080   27.2620   11.3700 C.3       6 GLP5        0.0000 
     60 CA          7.8315   29.2025   11.2960 C.3       3 GLC5        0.0000 
     61 CA          8.8720   28.4340    9.5710 C.3       9 GLL5        0.0000 
     62 CA          6.7910   29.9710   13.0210 C.3       6 GLP5        0.0000 
     63 CA         10.9465   27.3135   11.1370 C.3       3 GLC5        0.0000 
     64 CA         10.0540   27.6410    9.3460 C.3       9 GLL5        0.0000 
     65 CA         11.8390   26.9860   12.9280 C.3       6 GLP5        0.0000 
     66 CA         15.0277   24.1197    9.6020 C.3       3 GLC5        0.0000 
     67 CA         16.3260   22.2030    8.8480 C.3       9 GLL5        0.0000 
     68 CA         14.0830   25.4330   10.6560 C.3       6 GLP5        0.0000 
     69 CA         16.8375   21.8435   10.9262 C.3       3 GLC5        0.0000 
     70 CA         17.7880   23.0840   12.0400 C.3       6 GLP5        0.0000 
     71 CA         14.4495   19.3635    8.8848 C.3       3 GLC5        0.0000 
     72 CA         13.0120   18.1240    7.9570 C.3       6 GLP5        0.0000 
     73 CA         17.8895   21.6885   10.7335 C.3       3 GLC5        0.0000 
     74 CA         17.6090   19.7970    9.7840 C.3       9 GLL5        0.0000 
     75 CA         18.2364   23.7836    8.4217 C.3       3 GLC5        0.0000 
     76 CA         17.7390   21.9900    8.6030 C.3       9 GLL5        0.0000 
     77 CA         19.6170   25.1690    8.2680 C.3       6 GLP5        0.0000 
     78 CA         17.3219   22.7411   10.3077 C.3       3 GLC5        0.0000 
     79 CA         17.4905   20.6617    3.6115 C.3       3 GLC5        0.0000 
     80 CA         16.6620   19.3630    5.3800 C.3       9 GLL5        0.0000 
     81 CA         18.3600   22.1930    2.5600 C.3       6 GLP5        0.0000 
     82 CA         14.8490   18.1677    0.0017 C.3       3 GLC5        0.0000 
     83 CA         15.8260   18.7360    1.5760 C.3       9 GLL5        0.0000 
     84 CA         13.3790   18.1110   -1.4530 C.3       6 GLP5        0.0000 
     85 CA         15.2930   16.5532    1.6302 C.3       3 GLC5        0.0000 
     86 CA         14.2670   14.8820    1.8040 C.3       6 GLP5        0.0000 
     87 CA         16.8230   20.2430    1.5950 C.3       3 GLC5        0.0000 
     88 CA         16.8120   17.7130    1.3370 C.3       9 GLL5        0.0000 
     89 CA         17.3560   22.1120    1.4060 C.3       6 GLP5        0.0000 
     90 CA         18.5628   17.1385    0.6307 C.3       3 GLC5        0.0000 
     91 CA         19.8740   16.7830   -0.6010 C.3       6 GLP5        0.0000 
     92 CA          9.6238   23.8122    0.3890 C.3       3 GLC5        0.0000 
     93 CA         11.1600   24.0600    2.0790 C.3       9 GLL5        0.0000 
     94 CA          8.8460   23.5150   -1.3470 C.3       6 GLP5        0.0000 
     95 CA         11.3927   22.7538    1.1485 C.3       3 GLC5        0.0000 
     96 CA          9.6430   24.1590    2.1710 C.3       9 GLL5        0.0000 
     97 CA         12.3840   21.3980    0.1720 C.3       6 GLP5        0.0000 
     98 CA         10.5504   25.8769    0.7825 C.3       3 GLC5        0.0000 
     99 CA         11.4140   27.0080   -0.3920 C.3       6 GLP5        0.0000 
    100 CA          8.5517   24.4788    0.2577 C.3       3 GLC5        0.0000 
    101 CA          8.9720   25.3820    1.7890 C.3       9 GLL5        0.0000 
    102 CA          8.0337   22.2778    4.5047 C.3       3 GLC5        0.0000 
    103 CA          7.4370   23.1770    2.8360 C.3       9 GLL5        0.0000 
    104 CA          8.4983   23.3137    0.7087 C.3       3 GLC5        0.0000 
    105 CA          6.8166   22.0305    1.8656 C.3       3 GLC5        0.0000 
    106 CA          8.8640   23.0480    2.6930 C.3       9 GLL5        0.0000 
    107 CA          5.6470   20.6420    1.0610 C.3       6 GLP5        0.0000 
    108 CA          8.2688   30.2828    9.6660 C.3       3 GLC5        0.0000 
    109 CA          8.2420   32.2090   10.1840 C.3       6 GLP5        0.0000 
    110 CA          8.4105   26.9462   10.9153 C.3       3 GLC5        0.0000 
    111 CA          7.3580   25.8550   12.3720 C.3       6 GLP5        0.0000 
    112 CA         11.3705   28.0235    7.9460 C.3       3 GLC5        0.0000 
    113 CA         12.6720   28.8830    7.0840 C.3       6 GLP5        0.0000 
    114 CA          9.1085   24.6374    8.4859 C.3       3 GLC5        0.0000 
    115 CA         10.0840   26.6870    8.2700 C.3       9 GLL5        0.0000 
    116 CA          8.7060   22.9080    9.3970 C.3       6 GLP5        0.0000 
@<TRIPOS>BOND
@<TRIPOS>SUBSTRUCTURE
     1 ALC1        1 GROUP        1 X    ALC  0     ROOT ALC X 1
     2 SEC2       27 GROUP        1 X    SEC  0     **** SEC X 2
     3 GLC5        4 GROUP        1 X    GLC  0     **** GLC X 6
     4 ALP1        3 GROUP        1 Y    ALP  0     ROOT ALP Y 8
     5 SEP2       29 GROUP        1 Y    SEP  0     **** SEP Y 9
     6 GLP5        6 GROUP        1 Y    GLP  0     **** GLP Y 13
     7 ALL1        2 GROUP        1 Z    ALL  0     ROOT ALL Z 15
     8 SEL2       28 GROUP        1 Z    SEL  0     **** SEL Z 16
     9 GLL5        5 GROUP        1 Z    GLL  0     **** GLL Z 20
@<TRIPOS>SET

