#    Name: 1d4h_BEH_1_ligand
#    Modification time : Mon Mar 24 21:29:23 2014

@<TRIPOS>MOLECULE
1d4h_BEH_1_ligand
   83    87     1     0     0
SMALL
NO_CHARGES


@<TRIPOS>ATOM
      1 C01        13.8830   22.9830    5.0040 C.3       1 BEH501      0.0000 
      2 O02        14.3650   22.6670    3.6600 O.3       1 BEH501      0.0000 
      3 C03        14.9600   22.7210    6.0280 C.3       1 BEH501      0.0000 
      4 O04        14.5170   23.0660    7.3690 O.3       1 BEH501      0.0000 
      5 C05        15.6190   23.4100    8.2480 C.3       1 BEH501      0.0000 
      6 C06        16.3260   22.2030    8.8480 C.ar      1 BEH501      0.0000 
      7 C07        15.5640   21.2040    9.5830 C.ar      1 BEH501      0.0000 
      8 C08        16.2100   20.0020   10.0420 C.ar      1 BEH501      0.0000 
      9 C09        17.6090   19.7970    9.7840 C.ar      1 BEH501      0.0000 
     10 C10        18.3730   20.7890    9.0700 C.ar      1 BEH501      0.0000 
     11 C11        17.7390   21.9900    8.6030 C.ar      1 BEH501      0.0000 
     12 C12        15.1550   21.2440    5.9140 C.2       1 BEH501      0.0000 
     13 O13        14.2250   20.4730    6.1690 O.2       1 BEH501      0.0000 
     14 N14        16.3950   20.7770    5.5250 N.am      1 BEH501      0.0000 
     15 C15        16.6620   19.3630    5.3800 C.3       1 BEH501      0.0000 
     16 C16        16.5800   18.8980    3.9460 C.ar      1 BEH501      0.0000 
     17 C17        15.7100   19.3340    2.8860 C.ar      1 BEH501      0.0000 
     18 C18        15.8260   18.7360    1.5760 C.ar      1 BEH501      0.0000 
     19 C19        16.8120   17.7130    1.3370 C.ar      1 BEH501      0.0000 
     20 C20        17.6910   17.2750    2.3880 C.ar      1 BEH501      0.0000 
     21 C21        17.5630   17.8790    3.6860 C.ar      1 BEH501      0.0000 
     22 C22        18.3590   17.6050    4.9160 C.3       1 BEH501      0.0000 
     23 C23        18.0710   18.8740    5.7570 C.3       1 BEH501      0.0000 
     24 O24        19.0070   19.9050    5.4410 O.3       1 BEH501      0.0000 
     25 C31        13.3530   24.3940    5.0200 C.3       1 BEH501      0.0000 
     26 O32        14.3870   25.2310    4.4320 O.3       1 BEH501      0.0000 
     27 C33        12.0260   24.5700    4.2790 C.3       1 BEH501      0.0000 
     28 O34        11.8090   23.5440    3.2680 O.3       1 BEH501      0.0000 
     29 C35        11.1600   24.0600    2.0790 C.3       1 BEH501      0.0000 
     30 C36         9.6430   24.1590    2.1710 C.ar      1 BEH501      0.0000 
     31 C37         8.9720   25.3820    1.7890 C.ar      1 BEH501      0.0000 
     32 C38         7.5430   25.5030    1.9360 C.ar      1 BEH501      0.0000 
     33 C39         6.7800   24.4030    2.4590 C.ar      1 BEH501      0.0000 
     34 C40         7.4370   23.1770    2.8360 C.ar      1 BEH501      0.0000 
     35 C41         8.8640   23.0480    2.6930 C.ar      1 BEH501      0.0000 
     36 C42        10.9120   24.5110    5.3070 C.2       1 BEH501      0.0000 
     37 O43        10.7420   23.5120    6.0230 O.2       1 BEH501      0.0000 
     38 N44        10.0410   25.5750    5.3910 N.am      1 BEH501      0.0000 
     39 C45         8.9490   25.5690    6.3440 C.3       1 BEH501      0.0000 
     40 C46         8.9270   26.5240    7.4150 C.ar      1 BEH501      0.0000 
     41 C47         7.7390   27.3260    7.6450 C.ar      1 BEH501      0.0000 
     42 C48         7.7190   28.2790    8.7250 C.ar      1 BEH501      0.0000 
     43 C49         8.8720   28.4340    9.5710 C.ar      1 BEH501      0.0000 
     44 C50        10.0540   27.6410    9.3460 C.ar      1 BEH501      0.0000 
     45 C51        10.0840   26.6870    8.2700 C.ar      1 BEH501      0.0000 
     46 H          13.0345   22.3081    5.2273 H         1 BEH501      0.0000 
     47 H          15.8421   23.2131    5.7378 H         1 BEH501      0.0000 
     48 H          15.2667   24.0488    9.0860 H         1 BEH501      0.0000 
     49 H          16.3780   24.0140    7.7063 H         1 BEH501      0.0000 
     50 H          14.5845   21.3603    9.7671 H         1 BEH501      0.0000 
     51 H          15.6791   19.3033   10.5453 H         1 BEH501      0.0000 
     52 H          18.0638   18.9484   10.1061 H         1 BEH501      0.0000 
     53 H          19.3601   20.6364    8.8982 H         1 BEH501      0.0000 
     54 H          18.2712   22.6886    8.1043 H         1 BEH501      0.0000 
     55 H          17.1691   21.4311    5.3263 H         1 BEH501      0.0000 
     56 H          15.9624   18.7420    5.9393 H         1 BEH501      0.0000 
     57 H          15.0227   20.0524    3.0539 H         1 BEH501      0.0000 
     58 H          15.2152   19.0362    0.8290 H         1 BEH501      0.0000 
     59 H          16.8868   17.2951    0.4114 H         1 BEH501      0.0000 
     60 H          18.3769   16.5648    2.2186 H         1 BEH501      0.0000 
     61 H          19.3898   17.5660    4.7024 H         1 BEH501      0.0000 
     62 H          17.9875   16.7647    5.4314 H         1 BEH501      0.0000 
     63 H          18.0724   18.6097    6.7816 H         1 BEH501      0.0000 
     64 H          13.2104   24.6901    6.0603 H         1 BEH501      0.0000 
     65 H          12.0151   25.5566    3.8384 H         1 BEH501      0.0000 
     66 H          11.4044   23.4269    1.1937 H         1 BEH501      0.0000 
     67 H          11.5505   25.0746    1.8290 H         1 BEH501      0.0000 
     68 H           9.5097   26.1549    1.4171 H         1 BEH501      0.0000 
     69 H           7.0795   26.3621    1.6707 H         1 BEH501      0.0000 
     70 H           5.7749   24.4882    2.5638 H         1 BEH501      0.0000 
     71 H           6.8936   22.4050    3.2022 H         1 BEH501      0.0000 
     72 H           9.3281   22.1909    2.9528 H         1 BEH501      0.0000 
     73 H          10.1403   26.3980    4.7840 H         1 BEH501      0.0000 
     74 H           8.8638   24.5135    6.7872 H         1 BEH501      0.0000 
     75 H           7.9625   25.6429    5.7616 H         1 BEH501      0.0000 
     76 H           6.9344   27.2128    7.0490 H         1 BEH501      0.0000 
     77 H           6.8920   28.8400    8.8881 H         1 BEH501      0.0000 
     78 H           8.8541   29.1058   10.3315 H         1 BEH501      0.0000 
     79 H          10.8610   27.7560    9.9447 H         1 BEH501      0.0000 
     80 H          10.9105   26.1286    8.1074 H         1 BEH501      0.0000 
     81 H          14.3745   23.5421    3.1762 H         1 BEH501      0.0000 
     82 H          18.4532   20.7286    5.3187 H         1 BEH501      0.0000 
     83 H          14.8135   24.6605    3.7301 H         1 BEH501      0.0000 
@<TRIPOS>BOND
     1    2    1 1    
     2    3    1 1    
     3   25    1 1    
     4   46    1 1    
     5   81    2 1    
     6    4    3 1    
     7   12    3 1    
     8   47    3 1    
     9    5    4 1    
    10    6    5 1    
    11   48    5 1    
    12   49    5 1    
    13    7    6 ar   
    14   11    6 ar   
    15    8    7 ar   
    16   50    7 1    
    17    9    8 ar   
    18   51    8 1    
    19   10    9 ar   
    20   52    9 1    
    21   11   10 ar   
    22   53   10 1    
    23   54   11 1    
    24   13   12 2    
    25   14   12 am   
    26   15   14 1    
    27   55   14 1    
    28   16   15 1    
    29   23   15 1    
    30   56   15 1    
    31   17   16 ar   
    32   21   16 ar   
    33   18   17 ar   
    34   57   17 1    
    35   19   18 ar   
    36   58   18 1    
    37   20   19 ar   
    38   59   19 1    
    39   21   20 ar   
    40   60   20 1    
    41   22   21 1    
    42   23   22 1    
    43   61   22 1    
    44   62   22 1    
    45   24   23 1    
    46   63   23 1    
    47   82   24 1    
    48   26   25 1    
    49   27   25 1    
    50   64   25 1    
    51   83   26 1    
    52   28   27 1    
    53   36   27 1    
    54   65   27 1    
    55   29   28 1    
    56   30   29 1    
    57   66   29 1    
    58   67   29 1    
    59   31   30 ar   
    60   35   30 ar   
    61   32   31 ar   
    62   68   31 1    
    63   33   32 ar   
    64   69   32 1    
    65   34   33 ar   
    66   70   33 1    
    67   35   34 ar   
    68   71   34 1    
    69   72   35 1    
    70   37   36 2    
    71   38   36 am   
    72   39   38 1    
    73   73   38 1    
    74   40   39 1    
    75   74   39 1    
    76   75   39 1    
    77   41   40 ar   
    78   45   40 ar   
    79   42   41 ar   
    80   76   41 1    
    81   43   42 ar   
    82   77   42 1    
    83   44   43 ar   
    84   78   43 1    
    85   45   44 ar   
    86   79   44 1    
    87   80   45 1    
@<TRIPOS>SUBSTRUCTURE
     1 BEH501      1 GROUP   
@<TRIPOS>SET

