#    Name: 3s85_LK0_2_INTS_M
#    Modification time : Tue Mar 25 12:16:48 2014

@<TRIPOS>MOLECULE
3s85_LK0_2_INTS_M
  105     0     9     0     0
SMALL
NO_CHARGES


@<TRIPOS>ATOM
      1 N           1.0955   45.7965   31.6365 N.am      2 SEC2        0.0000 
      2 N           0.2900   44.8670   30.8460 N.am      8 SEL2        0.0000 
      3 N           1.9010   46.7260   32.4270 N.am      5 SEP2        0.0000 
      4 CA          2.3890   45.0950   29.6975 C.3       3 GLC5        0.0000 
      5 CA          1.2950   43.5360   28.8490 C.3       9 GLL5        0.0000 
      6 CA          3.4830   46.6540   30.5460 C.3       6 GLP5        0.0000 
      7 O          -2.5085   44.0460   28.9375 O.2       1 ALC1        0.0000 
      8 O          -1.8540   44.4700   30.0970 O.2       7 ALL1        0.0000 
      9 O          -3.1630   43.6220   27.7780 O.2       4 ALP1        0.0000 
     10 CA         -1.1620   45.8040   32.6145 C.3       3 GLC5        0.0000 
     11 CA         -2.4570   45.2220   31.1720 C.3       9 GLL5        0.0000 
     12 CA          0.1330   46.3860   34.0570 C.3       6 GLP5        0.0000 
     13 CA         -0.4705   49.1195   30.0370 C.3       3 GLC5        0.0000 
     14 CA         -1.8780   47.5110   30.4150 C.3       9 GLL5        0.0000 
     15 CA          0.9370   50.7280   29.6590 C.3       6 GLP5        0.0000 
     16 CA         -3.0870   48.5725   28.9115 C.3       3 GLC5        0.0000 
     17 CA         -4.2960   49.6340   27.4080 C.3       6 GLP5        0.0000 
     18 CA         -5.0480   48.1750   32.9095 C.3       3 GLC5        0.0000 
     19 CA         -3.8620   47.1950   31.7810 C.3       9 GLL5        0.0000 
     20 CA         -6.2340   49.1550   34.0380 C.3       6 GLP5        0.0000 
     21 CA         -4.0690   48.0265   28.4205 C.3       3 GLC5        0.0000 
     22 CA         -3.8420   46.4190   29.4330 C.3       9 GLL5        0.0000 
     23 CA         -4.7605   44.5650   29.0050 C.3       3 GLC5        0.0000 
     24 CA         -5.6790   42.7110   28.5770 C.3       6 GLP5        0.0000 
     25 O          -6.6195   43.3310   37.1410 O.2       1 ALC1        0.0000 
     26 O          -6.6920   42.7370   35.6350 O.2       7 ALL1        0.0000 
     27 O          -6.5470   43.9250   38.6470 O.2       4 ALP1        0.0000 
     28 CA         -3.9280   39.9485   34.3345 C.3       3 GLC5        0.0000 
     29 CA         -4.1310   42.1230   34.2560 C.3       9 GLL5        0.0000 
     30 CA         -3.7250   37.7740   34.4130 C.3       6 GLP5        0.0000 
     31 CA         -3.1740   39.3615   33.5530 C.3       3 GLC5        0.0000 
     32 CA         -2.6230   40.9490   32.6930 C.3       9 GLL5        0.0000 
     33 CA         -0.4500   38.7960   31.6875 C.3       3 GLC5        0.0000 
     34 CA         -0.9530   40.7180   30.8700 C.3       9 GLL5        0.0000 
     35 CA          0.0530   36.8740   32.5050 C.3       6 GLP5        0.0000 
     36 O          -1.4780   43.4810   33.2510 O.2       1 ALC1        0.0000 
     37 O          -2.8970   43.3500   32.5330 O.2       7 ALL1        0.0000 
     38 O          -0.0590   43.6120   33.9690 O.2       4 ALP1        0.0000 
     39 CA         -7.5455   46.4950   38.0470 C.3       3 GLC5        0.0000 
     40 CA         -8.4470   45.1600   36.4820 C.3       9 GLL5        0.0000 
     41 CA         -6.6440   47.8300   39.6120 C.3       6 GLP5        0.0000 
     42 CA        -11.2355   48.0770   36.8640 C.3       3 GLC5        0.0000 
     43 CA        -12.5470   46.5010   36.8320 C.3       9 GLL5        0.0000 
     44 CA         -9.9240   49.6530   36.8960 C.3       6 GLP5        0.0000 
     45 CA        -11.7605   44.1260   33.5645 C.3       3 GLC5        0.0000 
     46 CA        -12.9400   45.1210   34.9630 C.3       9 GLL5        0.0000 
     47 CA        -10.5810   43.1310   32.1660 C.3       6 GLP5        0.0000 
     48 N          -3.5240   42.4925   36.5910 N.am      2 SEC2        0.0000 
     49 N          -3.9970   43.6220   36.0900 N.am      8 SEL2        0.0000 
     50 N          -3.0510   41.3630   37.0920 N.am      5 SEP2        0.0000 
     51 O          -2.9870   44.4905   36.8780 O.2       1 ALC1        0.0000 
     52 O          -3.9970   43.6220   36.0900 O.2       7 ALL1        0.0000 
     53 O          -1.9770   45.3590   37.6660 O.2       4 ALP1        0.0000 
     54 O          -3.8030   44.9590   36.3220 O.2       1 ALC1        0.0000 
     55 O          -3.6090   46.2960   36.5540 O.2       4 ALP1        0.0000 
     56 O         -10.7280   41.7580   35.2945 O.2       1 ALC1        0.0000 
     57 O          -9.6910   41.7690   36.2430 O.2       7 ALL1        0.0000 
     58 O         -11.7650   41.7470   34.3460 O.2       4 ALP1        0.0000 
     59 CA         -7.3800   41.2695   38.0035 C.3       3 GLC5        0.0000 
     60 CA         -8.3780   41.1590   36.2440 C.3       9 GLL5        0.0000 
     61 CA         -6.3820   41.3800   39.7630 C.3       6 GLP5        0.0000 
     62 CA         -9.4890   37.6595   38.7785 C.3       3 GLC5        0.0000 
     63 CA         -8.7870   38.9700   37.3320 C.3       9 GLL5        0.0000 
     64 CA        -10.1910   36.3490   40.2250 C.3       6 GLP5        0.0000 
     65 CA         -6.8350   37.1085   35.5060 C.3       3 GLC5        0.0000 
     66 CA         -7.1180   39.0810   35.5770 C.3       9 GLL5        0.0000 
     67 CA         -6.5520   35.1360   35.4350 C.3       6 GLP5        0.0000 
     68 CA         -5.4215   38.4275   34.9950 C.3       3 GLC5        0.0000 
     69 CA         -6.9020   38.2920   33.6050 C.3       3 GLC5        0.0000 
     70 CA         -6.6860   37.5030   31.6330 C.3       6 GLP5        0.0000 
     71 CA        -10.2405   37.3760   34.8450 C.3       3 GLC5        0.0000 
     72 CA         -9.5060   39.2520   35.0180 C.3       9 GLL5        0.0000 
     73 CA        -10.9750   35.5000   34.6720 C.3       6 GLP5        0.0000 
     74 CA         -9.6415   39.4695   32.9475 C.3       3 GLC5        0.0000 
     75 CA         -9.7770   39.6870   30.8770 C.3       6 GLP5        0.0000 
     76 N          -9.1940   41.4815   39.7510 N.am      2 SEC2        0.0000 
     77 N          -9.9220   41.9170   38.5470 N.am      8 SEL2        0.0000 
     78 N          -8.4660   41.0460   40.9550 N.am      5 SEP2        0.0000 
     79 CA        -11.5145   41.9610   40.0025 C.3       3 GLC5        0.0000 
     80 CA        -12.2330   43.0410   38.2710 C.3       9 GLL5        0.0000 
     81 CA        -10.7960   40.8810   41.7340 C.3       6 GLP5        0.0000 
     82 CA         -1.9839   47.3273   32.7519 C.3       3 GLC5        0.0000 
     83 CA         -0.8120   47.5390   34.3350 C.3       6 GLP5        0.0000 
     84 CA         -5.3009   47.5817   30.2136 C.3       3 GLC5        0.0000 
     85 CA         -6.9600   48.5150   30.0910 C.3       6 GLP5        0.0000 
     86 CA         -4.3688   41.4800   29.1253 C.3       3 GLC5        0.0000 
     87 CA         -2.8810   40.1250   29.0190 C.3       9 GLL5        0.0000 
     88 CA        -10.0655   47.5643   36.5012 C.3       3 GLC5        0.0000 
     89 CA        -10.6100   45.6350   35.5720 C.3       9 GLL5        0.0000 
     90 CA         -7.0631   47.2901   34.3556 C.3       3 GLC5        0.0000 
     91 CA         -8.6610   45.6330   34.1690 C.3       9 GLL5        0.0000 
     92 CA         -3.1859   38.7376   29.0065 C.3       3 GLC5        0.0000 
     93 CA         -3.2360   40.3730   30.3280 C.3       9 GLL5        0.0000 
     94 CA         -3.6430   37.2150   28.4380 C.3       6 GLP5        0.0000 
     95 CA        -10.2782   44.4029   33.5389 C.3       3 GLC5        0.0000 
     96 CA        -10.0210   45.7960   34.3340 C.3       9 GLL5        0.0000 
     97 CA        -10.7807   46.8629   33.5429 C.3       3 GLC5        0.0000 
     98 CA        -11.5860   48.0510   32.1740 C.3       6 GLP5        0.0000 
     99 CA        -12.4730   47.3483   34.7120 C.3       3 GLC5        0.0000 
    100 CA        -12.0350   45.7620   35.7840 C.3       9 GLL5        0.0000 
    101 CA        -12.6550   48.5650   33.1160 C.3       6 GLP5        0.0000 
    102 CA        -13.1345   46.8758   34.1033 C.3       3 GLC5        0.0000 
    103 CA         -6.7459   39.6860   37.6723 C.3       3 GLC5        0.0000 
    104 CA         -8.4480   39.6440   36.0240 C.3       9 GLL5        0.0000 
    105 CA         -5.6240   40.1780   39.2170 C.3       6 GLP5        0.0000 
@<TRIPOS>BOND
@<TRIPOS>SUBSTRUCTURE
     1 ALC1        7 GROUP        1 X    ALC  0     ROOT ALC X 1
     2 SEC2        1 GROUP        1 X    SEC  0     **** SEC X 2
     3 GLC5        4 GROUP        1 X    GLC  0     **** GLC X 6
     4 ALP1        9 GROUP        1 Y    ALP  0     ROOT ALP Y 8
     5 SEP2        3 GROUP        1 Y    SEP  0     **** SEP Y 9
     6 GLP5        6 GROUP        1 Y    GLP  0     **** GLP Y 13
     7 ALL1        8 GROUP        1 Z    ALL  0     ROOT ALL Z 15
     8 SEL2        2 GROUP        1 Z    SEL  0     **** SEL Z 16
     9 GLL5        5 GROUP        1 Z    GLL  0     **** GLL Z 20
@<TRIPOS>SET

