#    Name: 3s85_LK0_2_ligand
#    Modification time : Tue Mar 25 12:16:48 2014

@<TRIPOS>MOLECULE
3s85_LK0_2_ligand
  104   106     1     0     0
SMALL
NO_CHARGES


@<TRIPOS>ATOM
      1 C24        -0.4880   44.3400   30.0610 C.2       1 LK01002     0.0000 
      2 O31         0.2900   44.8670   30.8460 O.2       1 LK01002     0.0000 
      3 O25        -0.1130   43.5350   29.0280 O.3       1 LK01002     0.0000 
      4 C26         1.2950   43.5360   28.8490 C.3       1 LK01002     0.0000 
      5 N23        -1.8540   44.4700   30.0970 N.am      1 LK01002     0.0000 
      6 C22        -2.4570   45.2220   31.1720 C.3       1 LK01002     0.0000 
      7 C28        -3.0210   46.5610   30.6980 C.3       1 LK01002     0.0000 
      8 C29        -1.8780   47.5110   30.4150 C.3       1 LK01002     0.0000 
      9 C30        -3.8620   47.1950   31.7810 C.3       1 LK01002     0.0000 
     10 C50        -3.8420   46.4190   29.4330 C.3       1 LK01002     0.0000 
     11 C21        -3.4920   44.2700   31.7070 C.2       1 LK01002     0.0000 
     12 O27        -4.6890   44.3040   31.4570 O.2       1 LK01002     0.0000 
     13 N1         -6.6920   42.7370   35.6350 N.am      1 LK01002     0.0000 
     14 C4         -4.1310   42.1230   34.2560 C.3       1 LK01002     0.0000 
     15 C5         -6.3850   45.1260   35.1090 C.3       1 LK01002     0.0000 
     16 C7         -3.5700   42.1170   32.8470 C.3       1 LK01002     0.0000 
     17 C8         -2.6230   40.9490   32.6930 C.3       1 LK01002     0.0000 
     18 C10        -0.9530   40.7180   30.8700 C.ar      1 LK01002     0.0000 
     19 C13        -2.8810   40.1250   29.0190 C.ar      1 LK01002     0.0000 
     20 C15        -7.8620   45.3090   35.2460 C.ar      1 LK01002     0.0000 
     21 C17        -9.8040   45.3160   36.6410 C.ar      1 LK01002     0.0000 
     22 C20        -8.6610   45.6330   34.1690 C.ar      1 LK01002     0.0000 
     23 C2         -6.0240   43.6890   34.7710 C.3       1 LK01002     0.0000 
     24 C3         -4.5140   43.4960   34.7740 C.3       1 LK01002     0.0000 
     25 N6         -2.8970   43.3500   32.5330 N.am      1 LK01002     0.0000 
     26 C9         -2.2720   40.6770   31.2660 C.ar      1 LK01002     0.0000 
     27 C11        -0.5980   40.4670   29.5590 C.ar      1 LK01002     0.0000 
     28 C12        -1.5620   40.1700   28.6250 C.ar      1 LK01002     0.0000 
     29 C14        -3.2360   40.3730   30.3280 C.ar      1 LK01002     0.0000 
     30 C16        -8.4470   45.1600   36.4820 C.ar      1 LK01002     0.0000 
     31 C18       -10.6100   45.6350   35.5720 C.ar      1 LK01002     0.0000 
     32 C19       -10.0210   45.7960   34.3340 C.ar      1 LK01002     0.0000 
     33 C44       -12.0350   45.7620   35.7840 C.ar      1 LK01002     0.0000 
     34 C45       -12.5470   46.5010   36.8320 C.ar      1 LK01002     0.0000 
     35 N46       -13.8460   46.6500   37.1210 N.ar      1 LK01002     0.0000 
     36 C47       -14.6820   46.0130   36.2950 C.ar      1 LK01002     0.0000 
     37 C48       -14.2880   45.2520   35.2180 C.ar      1 LK01002     0.0000 
     38 C49       -12.9400   45.1210   34.9630 C.ar      1 LK01002     0.0000 
     39 O51        -3.9970   43.6220   36.0900 O.3       1 LK01002     0.0000 
     40 N34        -9.6910   41.7690   36.2430 N.am      1 LK01002     0.0000 
     41 C33        -8.3780   41.1590   36.2440 C.3       1 LK01002     0.0000 
     42 C38        -8.4480   39.6440   36.0240 C.3       1 LK01002     0.0000 
     43 C39        -8.7870   38.9700   37.3320 C.3       1 LK01002     0.0000 
     44 C40        -7.1180   39.0810   35.5770 C.3       1 LK01002     0.0000 
     45 C43        -9.5060   39.2520   35.0180 C.3       1 LK01002     0.0000 
     46 C32        -7.6600   41.8910   35.1360 C.2       1 LK01002     0.0000 
     47 O37        -7.9240   41.7460   33.9480 O.2       1 LK01002     0.0000 
     48 C35       -10.3600   42.0550   37.4100 C.2       1 LK01002     0.0000 
     49 O41        -9.9220   41.9170   38.5470 O.2       1 LK01002     0.0000 
     50 O36       -11.6010   42.5220   37.1120 O.3       1 LK01002     0.0000 
     51 C42       -12.2330   43.0410   38.2710 C.3       1 LK01002     0.0000 
     52 H          -2.4591   44.0561   29.3941 H         1 LK01002     0.0000 
     53 H          -1.7232   45.3882   31.9481 H         1 LK01002     0.0000 
     54 H          -6.4203   42.7156   36.6243 H         1 LK01002     0.0000 
     55 H          -3.3855   41.6756   34.9414 H         1 LK01002     0.0000 
     56 H          -5.0205   41.4648   34.2913 H         1 LK01002     0.0000 
     57 H          -5.8869   45.4051   36.0461 H         1 LK01002     0.0000 
     58 H          -6.0003   45.7829   34.3186 H         1 LK01002     0.0000 
     59 H          -4.4042   41.9537   32.1594 H         1 LK01002     0.0000 
     60 H          -3.0859   40.0528   33.1369 H         1 LK01002     0.0000 
     61 H          -1.7049   41.1555   33.2664 H         1 LK01002     0.0000 
     62 H          -0.2148   40.9404   31.5653 H         1 LK01002     0.0000 
     63 H          -3.6175   39.9017   28.3223 H         1 LK01002     0.0000 
     64 H         -10.2278   45.1912   37.5824 H         1 LK01002     0.0000 
     65 H          -8.2382   45.7544   33.2328 H         1 LK01002     0.0000 
     66 H          -6.3585   43.5184   33.7210 H         1 LK01002     0.0000 
     67 H          -4.0726   44.2350   34.1158 H         1 LK01002     0.0000 
     68 H          -1.9716   43.5133   32.9424 H         1 LK01002     0.0000 
     69 H           0.3978   40.5033   29.2818 H         1 LK01002     0.0000 
     70 H          -1.3042   39.9846   27.6494 H         1 LK01002     0.0000 
     71 H          -4.2311   40.3308   30.6082 H         1 LK01002     0.0000 
     72 H          -7.8570   44.9270   37.3043 H         1 LK01002     0.0000 
     73 H         -10.6102   46.0433   33.5156 H         1 LK01002     0.0000 
     74 H         -11.8253   46.9945   37.4627 H         1 LK01002     0.0000 
     75 H         -15.7363   46.0904   36.4703 H         1 LK01002     0.0000 
     76 H         -14.9792   44.7938   34.6200 H         1 LK01002     0.0000 
     77 H         -12.6127   44.5540   34.1726 H         1 LK01002     0.0000 
     78 H         -10.1120   41.9842   35.3220 H         1 LK01002     0.0000 
     79 H          -7.8770   41.3728   37.1690 H         1 LK01002     0.0000 
     80 H           1.7735   43.2138   29.6658 H         1 LK01002     0.0000 
     81 H           1.5737   42.9435   28.0932 H         1 LK01002     0.0000 
     82 H           1.6431   44.4515   28.6475 H         1 LK01002     0.0000 
     83 H          -1.3219   47.6761   31.2296 H         1 LK01002     0.0000 
     84 H          -1.2655   47.1552   29.7091 H         1 LK01002     0.0000 
     85 H          -2.2049   48.4013   30.0979 H         1 LK01002     0.0000 
     86 H          -3.3321   47.3629   32.6123 H         1 LK01002     0.0000 
     87 H          -4.2392   48.0746   31.4912 H         1 LK01002     0.0000 
     88 H          -4.6350   46.6151   32.0383 H         1 LK01002     0.0000 
     89 H          -3.3000   46.0499   28.6780 H         1 LK01002     0.0000 
     90 H          -4.6206   45.8049   29.5625 H         1 LK01002     0.0000 
     91 H          -4.2093   47.2977   29.1280 H         1 LK01002     0.0000 
     92 H          -8.8432   37.9764   37.2342 H         1 LK01002     0.0000 
     93 H          -8.1007   39.1569   38.0349 H         1 LK01002     0.0000 
     94 H          -9.6672   39.2794   37.6920 H         1 LK01002     0.0000 
     95 H          -6.3995   39.2441   36.2531 H         1 LK01002     0.0000 
     96 H          -7.1634   38.0929   35.4302 H         1 LK01002     0.0000 
     97 H          -6.8109   39.4911   34.7182 H         1 LK01002     0.0000 
     98 H          -9.3387   39.6654   34.1229 H         1 LK01002     0.0000 
     99 H          -9.5403   38.2619   34.8818 H         1 LK01002     0.0000 
    100 H         -10.4188   39.5398   35.3078 H         1 LK01002     0.0000 
    101 H         -12.3320   42.3457   38.9829 H         1 LK01002     0.0000 
    102 H         -11.7141   43.7971   38.6699 H         1 LK01002     0.0000 
    103 H         -13.1492   43.3879   38.0706 H         1 LK01002     0.0000 
    104 H          -3.6167   44.5459   36.1312 H         1 LK01002     0.0000 
@<TRIPOS>BOND
     1    2    1 2    
     2    3    1 1    
     3    5    1 am   
     4    4    3 1    
     5   80    4 1    
     6   81    4 1    
     7   82    4 1    
     8    6    5 1    
     9   52    5 1    
    10    7    6 1    
    11   11    6 1    
    12   53    6 1    
    13    8    7 1    
    14    9    7 1    
    15   10    7 1    
    16   83    8 1    
    17   84    8 1    
    18   85    8 1    
    19   86    9 1    
    20   87    9 1    
    21   88    9 1    
    22   89   10 1    
    23   90   10 1    
    24   91   10 1    
    25   12   11 2    
    26   25   11 am   
    27   23   13 1    
    28   46   13 am   
    29   54   13 1    
    30   16   14 1    
    31   24   14 1    
    32   55   14 1    
    33   56   14 1    
    34   20   15 1    
    35   23   15 1    
    36   57   15 1    
    37   58   15 1    
    38   17   16 1    
    39   25   16 1    
    40   59   16 1    
    41   26   17 1    
    42   60   17 1    
    43   61   17 1    
    44   26   18 ar   
    45   27   18 ar   
    46   62   18 1    
    47   28   19 ar   
    48   29   19 ar   
    49   63   19 1    
    50   22   20 ar   
    51   30   20 ar   
    52   30   21 ar   
    53   31   21 ar   
    54   64   21 1    
    55   32   22 ar   
    56   65   22 1    
    57   24   23 1    
    58   66   23 1    
    59   39   24 1    
    60   67   24 1    
    61   68   25 1    
    62   29   26 ar   
    63   28   27 ar   
    64   69   27 1    
    65   70   28 1    
    66   71   29 1    
    67   72   30 1    
    68   32   31 ar   
    69   33   31 1    
    70   73   32 1    
    71   34   33 ar   
    72   38   33 ar   
    73   35   34 ar   
    74   74   34 1    
    75   36   35 ar   
    76   37   36 ar   
    77   75   36 1    
    78   38   37 ar   
    79   76   37 1    
    80   77   38 1    
    81  104   39 1    
    82   41   40 1    
    83   48   40 am   
    84   78   40 1    
    85   42   41 1    
    86   46   41 1    
    87   79   41 1    
    88   43   42 1    
    89   44   42 1    
    90   45   42 1    
    91   92   43 1    
    92   93   43 1    
    93   94   43 1    
    94   95   44 1    
    95   96   44 1    
    96   97   44 1    
    97   98   45 1    
    98   99   45 1    
    99  100   45 1    
   100   47   46 2    
   101   49   48 2    
   102   50   48 1    
   103   51   50 1    
   104  101   51 1    
   105  102   51 1    
   106  103   51 1    
@<TRIPOS>SUBSTRUCTURE
     1 LK01002     1 GROUP   
@<TRIPOS>SET

