#    Name: 2F2K_1_CAVITY_N1_ALL.mol2
#    Modification time : Tue Mar 11 11:40:51 2014

@<TRIPOS>MOLECULE
2F2K_1_CAVITY_N1_ALL.mol2
  111     0     5     0     0
SMALL
NO_CHARGES


@<TRIPOS>ATOM
      1 O          32.2792   42.9740   22.2208 O.2       2 ALA2        0.0000 
      2 DU         37.3759   47.4566   17.5916 H         5 CUB7        0.0000 
      3 CZ         36.1556   44.9967   21.1566 C.ar      3 PHE5        0.0000 
      4 CZ         35.7488   44.1767   22.3450 C.ar      3 PHE5        0.0000 
      5 CZ         35.3420   43.3567   23.5333 C.ar      3 PHE5        0.0000 
      6 CZ         34.9352   42.5368   24.7217 C.ar      3 PHE5        0.0000 
      7 CZ         37.1685   48.3870   14.3758 C.ar      3 PHE5        0.0000 
      8 CZ         36.7617   47.5670   15.5641 C.ar      3 PHE5        0.0000 
      9 DU         35.5414   45.1071   19.1292 H         5 CUB7        0.0000 
     10 DU         35.1346   44.2871   20.3175 H         5 CUB7        0.0000 
     11 DU         34.7278   43.4671   21.5059 H         5 CUB7        0.0000 
     12 O          34.3210   42.6472   22.6942 O.2       2 ALA2        0.0000 
     13 CA         33.9143   41.8272   23.8826 C.3       4 GLY6        0.0000 
     14 CA         36.1475   47.6774   13.5367 C.3       4 GLY6        0.0000 
     15 CZ         34.5204   44.3975   18.2901 C.ar      3 PHE5        0.0000 
     16 CZ         34.1136   43.5775   19.4784 C.ar      3 PHE5        0.0000 
     17 CA         33.7068   42.7576   20.6668 C.3       4 GLY6        0.0000 
     18 O          33.3001   41.9376   21.8551 O.2       2 ALA2        0.0000 
     19 OG         33.0926   42.8680   18.6393 O.2       1 SER1        0.0000 
     20 N          40.2313   48.7698   15.6883 N.2       2 ALA2        0.0000 
     21 DU         39.4177   47.1298   18.0650 H         5 CUB7        0.0000 
     22 CZ         39.0110   46.3098   19.2534 C.ar      3 PHE5        0.0000 
     23 N          39.6171   48.8802   13.6609 N.2       2 ALA2        0.0000 
     24 DU         39.2103   48.0602   14.8492 H         5 CUB7        0.0000 
     25 DU         38.8035   47.2402   16.0376 H         5 CUB7        0.0000 
     26 DU         38.3968   46.4202   17.2259 H         5 CUB7        0.0000 
     27 DU         37.9900   45.6002   18.4142 H         5 CUB7        0.0000 
     28 CZ         37.5832   44.7803   19.6026 C.ar      3 PHE5        0.0000 
     29 CZ         36.3629   42.3203   23.1676 C.ar      3 PHE5        0.0000 
     30 CZ         35.9561   41.5004   24.3560 C.ar      3 PHE5        0.0000 
     31 CZ         38.1893   47.3506   14.0101 C.ar      3 PHE5        0.0000 
     32 CZ         37.7826   46.5306   15.1984 C.ar      3 PHE5        0.0000 
     33 CZ         37.3758   45.7106   16.3868 C.ar      3 PHE5        0.0000 
     34 CZ         36.9690   44.8907   17.5751 C.ar      3 PHE5        0.0000 
     35 CZ         36.5622   44.0707   18.7635 C.ar      3 PHE5        0.0000 
     36 CZ         36.1554   43.2507   19.9518 C.ar      3 PHE5        0.0000 
     37 CZ         35.7487   42.4307   21.1402 C.ar      3 PHE5        0.0000 
     38 O          35.3419   41.6108   22.3285 O.2       2 ALA2        0.0000 
     39 O          34.9351   40.7908   23.5169 O.2       2 ALA2        0.0000 
     40 CA         37.1684   46.6410   13.1710 C.3       4 GLY6        0.0000 
     41 CZ         35.5412   43.3611   17.9244 C.ar      3 PHE5        0.0000 
     42 CZ         35.1345   42.5411   19.1127 C.ar      3 PHE5        0.0000 
     43 CA         34.7277   41.7212   20.3011 C.3       4 GLY6        0.0000 
     44 CA         34.1135   41.8316   18.2736 C.3       4 GLY6        0.0000 
     45 CA         43.2941   49.1525   17.0008 C.3       4 GLY6        0.0000 
     46 N          42.6799   49.2629   14.9734 N.2       2 ALA2        0.0000 
     47 DU         42.2731   48.4429   16.1617 H         5 CUB7        0.0000 
     48 O          41.8663   47.6230   17.3501 O.2       2 ALA2        0.0000 
     49 CA         41.4596   46.8030   18.5384 C.3       4 GLY6        0.0000 
     50 N          41.6589   48.5533   14.1343 N.2       2 ALA2        0.0000 
     51 N          41.2521   47.7334   15.3226 N.2       2 ALA2        0.0000 
     52 O          40.8454   46.9134   16.5110 O.2       2 ALA2        0.0000 
     53 O          40.4386   46.0934   17.6993 O.2       2 ALA2        0.0000 
     54 CZ         40.0318   45.2734   18.8877 C.ar      3 PHE5        0.0000 
     55 CZ         39.6250   44.4534   20.0760 C.ar      3 PHE5        0.0000 
     56 N          40.2312   47.0238   14.4835 N.2       2 ALA2        0.0000 
     57 N          39.8244   46.2038   15.6719 N.2       2 ALA2        0.0000 
     58 DU         39.4176   45.3838   16.8602 H         5 CUB7        0.0000 
     59 DU         39.0108   44.5638   18.0485 H         5 CUB7        0.0000 
     60 CZ         38.6041   43.7439   19.2369 C.ar      3 PHE5        0.0000 
     61 CA         39.2102   46.3142   13.6444 C.3       4 GLY6        0.0000 
     62 CA         38.8034   45.4942   14.8327 C.3       4 GLY6        0.0000 
     63 CZ         38.3966   44.6742   16.0211 C.ar      3 PHE5        0.0000 
     64 CZ         37.9899   43.8543   17.2094 C.ar      3 PHE5        0.0000 
     65 DU         37.5831   43.0343   18.3978 H         5 CUB7        0.0000 
     66 CZ         37.1763   42.2143   19.5861 C.ar      3 PHE5        0.0000 
     67 CZ         36.7695   41.3943   20.7745 C.ar      3 PHE5        0.0000 
     68 O          36.3627   40.5743   21.9628 O.2       2 ALA2        0.0000 
     69 CA         37.7824   44.7846   13.9936 C.3       4 GLY6        0.0000 
     70 CZ         36.9689   43.1447   16.3703 C.ar      3 PHE5        0.0000 
     71 CZ         36.5621   42.3247   17.5587 C.ar      3 PHE5        0.0000 
     72 CA         36.1553   41.5047   18.7470 C.3       4 GLY6        0.0000 
     73 CA         35.7485   40.6848   19.9354 C.3       4 GLY6        0.0000 
     74 N          43.2940   47.4065   15.7960 N.2       2 ALA2        0.0000 
     75 O          42.8872   46.5865   16.9844 O.2       2 ALA2        0.0000 
     76 N          42.2730   46.6969   14.9569 N.2       2 ALA2        0.0000 
     77 O          41.8662   45.8770   16.1453 O.2       2 ALA2        0.0000 
     78 N          40.8452   45.1674   15.3062 N.2       2 ALA2        0.0000 
     79 O          40.4385   44.3474   16.4945 O.2       2 ALA2        0.0000 
     80 O          40.0317   43.5274   17.6829 O.2       2 ALA2        0.0000 
     81 CZ         39.6249   42.7075   18.8712 C.ar      3 PHE5        0.0000 
     82 CA         39.8243   44.4578   14.4671 C.3       4 GLY6        0.0000 
     83 CA         39.4175   43.6378   15.6554 C.3       4 GLY6        0.0000 
     84 DU         39.0107   42.8179   16.8437 H         5 CUB7        0.0000 
     85 DU         38.6039   41.9979   18.0321 H         5 CUB7        0.0000 
     86 CZ         38.1971   41.1779   19.2204 C.ar      3 PHE5        0.0000 
     87 CA         37.7904   40.3579   20.4088 C.3       4 GLY6        0.0000 
     88 CZ         38.3965   42.9283   14.8163 C.ar      3 PHE5        0.0000 
     89 CZ         37.9897   42.1083   16.0046 C.ar      3 PHE5        0.0000 
     90 CA         37.5829   41.2883   17.1930 C.3       4 GLY6        0.0000 
     91 CA         37.1762   40.4683   18.3813 C.3       4 GLY6        0.0000 
     92 O          36.7694   39.6483   19.5697 O.2       2 ALA2        0.0000 
     93 CZ         41.8661   44.1310   14.9405 C.ar      3 PHE5        0.0000 
     94 O          41.4593   43.3110   16.1288 O.2       2 ALA2        0.0000 
     95 CZ         41.0525   42.4910   17.3172 C.ar      3 PHE5        0.0000 
     96 CZ         40.6457   41.6711   18.5055 C.ar      3 PHE5        0.0000 
     97 CA         40.2390   40.8511   19.6939 C.3       4 GLY6        0.0000 
     98 CA         40.4383   42.6014   15.2897 C.3       4 GLY6        0.0000 
     99 DU         40.0315   41.7815   16.4781 H         5 CUB7        0.0000 
    100 DU         39.6248   40.9615   17.6664 H         5 CUB7        0.0000 
    101 CA         39.2180   40.1415   18.8547 C.3       4 GLY6        0.0000 
    102 CZ         39.4173   41.8919   14.4506 C.ar      3 PHE5        0.0000 
    103 CZ         39.0106   41.0719   15.6389 C.ar      3 PHE5        0.0000 
    104 O          38.6038   40.2519   16.8273 O.2       2 ALA2        0.0000 
    105 CZ         42.0734   41.4546   16.9515 C.ar      3 PHE5        0.0000 
    106 CZ         41.6666   40.6346   18.1398 C.ar      3 PHE5        0.0000 
    107 CZ         41.4592   41.5650   14.9240 C.ar      3 PHE5        0.0000 
    108 N          41.0524   40.7450   16.1124 N.2       2 ALA2        0.0000 
    109 CA         40.6456   39.9251   17.3007 C.3       4 GLY6        0.0000 
    110 N          40.0314   40.0355   15.2733 N.2       2 ALA2        0.0000 
    111 O          39.6246   39.2155   16.4616 O.2       2 ALA2        0.0000 
@<TRIPOS>BOND
@<TRIPOS>SUBSTRUCTURE
     1 SER1       19 GROUP   
     2 ALA2        1 GROUP   
     3 PHE5        3 GROUP   
     4 GLY6       13 GROUP   
     5 CUB7        2 GROUP   
@<TRIPOS>SET

