#    Name: 2f2k_TGG_1_INTS_M
#    Modification time : Tue Mar 25 12:14:42 2014

@<TRIPOS>MOLECULE
2f2k_TGG_1_INTS_M
   34     0     6     0     0
SMALL
NO_CHARGES


@<TRIPOS>ATOM
      1 CA         33.9895   40.2810   21.3430 C.3       2 GLC5        0.0000 
      2 CA         34.5500   41.4920   22.3890 C.3       6 GLL5        0.0000 
      3 CA         33.4290   39.0700   20.2970 C.3       4 GLP5        0.0000 
      4 CA         33.1185   40.6680   23.6315 C.3       2 GLC5        0.0000 
      5 CA         31.6870   39.8440   24.8740 C.3       4 GLP5        0.0000 
      6 CA         37.2515   39.2595   17.8865 C.3       2 GLC5        0.0000 
      7 CA         37.1200   41.3240   18.3760 C.3       6 GLL5        0.0000 
      8 CA         37.3830   37.1950   17.3970 C.3       4 GLP5        0.0000 
      9 CA         39.0370   42.0285   20.7965 C.3       2 GLC5        0.0000 
     10 CA         38.7120   41.1640   19.2700 C.3       6 GLL5        0.0000 
     11 CA         39.3620   42.8930   22.3230 C.3       4 GLP5        0.0000 
     12 CA         38.8865   38.4340   17.5005 C.3       2 GLC5        0.0000 
     13 CA         40.3900   39.6730   17.6040 C.3       6 GLL5        0.0000 
     14 CA         40.5410   39.1115   19.4400 C.3       2 GLC5        0.0000 
     15 CA         40.6920   38.5500   21.2760 C.3       4 GLP5        0.0000 
     16 CA         41.6335   38.5670   17.8925 C.3       2 GLC5        0.0000 
     17 CA         42.8770   37.4610   18.1810 C.3       4 GLP5        0.0000 
     18 N          43.7210   39.8310   15.8235 N.am      1 SEC2        0.0000 
     19 N          42.6450   40.1930   16.9430 N.am      5 SEL2        0.0000 
     20 N          44.7970   39.4690   14.7040 N.am      3 SEP2        0.0000 
     21 N          43.1605   39.2430   15.1480 N.am      1 SEC2        0.0000 
     22 N          41.5240   39.0170   15.5920 N.am      5 SEL2        0.0000 
     23 CA         36.1055   45.1016   16.3136 C.3       2 GLC5        0.0000 
     24 CA         38.1170   45.6610   16.3400 C.3       6 GLL5        0.0000 
     25 CA         34.9530   44.2770   14.9390 C.3       4 GLP5        0.0000 
     26 CA         35.5065   42.5042   17.1337 C.3       2 GLC5        0.0000 
     27 CA         36.1300   42.3150   18.9990 C.3       6 GLL5        0.0000 
     28 CA         34.3880   43.1890   15.5800 C.3       4 GLP5        0.0000 
     29 CA         35.3645   40.6838   17.9593 C.3       2 GLC5        0.0000 
     30 CA         34.1040   39.5480   17.2310 C.3       4 GLP5        0.0000 
     31 CA         40.7965   42.1303   19.4138 C.3       2 GLC5        0.0000 
     32 CA         42.2350   43.1240   20.2070 C.3       4 GLP5        0.0000 
     33 CA         40.0250   39.8432   19.9483 C.3       2 GLC5        0.0000 
     34 CA         40.0040   41.1090   17.9710 C.3       6 GLL5        0.0000 
@<TRIPOS>BOND
@<TRIPOS>SUBSTRUCTURE
     1 SEC2       18 GROUP        1 X    SEC  0     ROOT SEC X 2
     2 GLC5        1 GROUP        1 X    GLC  0     **** GLC X 6
     3 SEP2       20 GROUP        1 Y    SEP  0     ROOT SEP Y 9
     4 GLP5        3 GROUP        1 Y    GLP  0     **** GLP Y 13
     5 SEL2       19 GROUP        1 Z    SEL  0     ROOT SEL Z 16
     6 GLL5        2 GROUP        1 Z    GLL  0     **** GLL Z 20
@<TRIPOS>SET

