#    Name: 2f2k_TGG_1_ligand
#    Modification time : Tue Mar 25 12:14:42 2014

@<TRIPOS>MOLECULE
2f2k_TGG_1_ligand
   46    45     1     0     0
SMALL
NO_CHARGES


@<TRIPOS>ATOM
      1 OC1        38.2730   48.0190   15.9300 O.co2     1 TGG351      0.0000 
      2 CO1        37.8930   46.9280   15.5080 C.2       1 TGG351      0.0000 
      3 OT1        37.3730   46.8730   14.3940 O.co2     1 TGG351      0.0000 
      4 CA1        38.1170   45.6610   16.3400 C.3       1 TGG351      0.0000 
      5 NN1        39.4900   45.1880   16.1080 N.4       1 TGG351      0.0000 
      6 CB1        37.9450   45.9340   17.8370 C.3       1 TGG351      0.0000 
      7 CG1        36.4850   46.0550   18.2880 C.3       1 TGG351      0.0000 
      8 CD1        35.7950   44.7020   18.4840 C.2       1 TGG351      0.0000 
      9 OE1        34.5700   44.6080   18.4080 O.2       1 TGG351      0.0000 
     10 NN2        36.6080   43.6880   18.7720 N.am      1 TGG351      0.0000 
     11 CA2        36.1300   42.3150   18.9990 C.3       1 TGG351      0.0000 
     12 CO2        36.0130   42.0920   20.5100 C.2       1 TGG351      0.0000 
     13 OC2        36.9910   42.2490   21.2400 O.2       1 TGG351      0.0000 
     14 NN3        34.8120   41.7390   20.9620 N.am      1 TGG351      0.0000 
     15 CA3        34.5500   41.4920   22.3890 C.3       1 TGG351      0.0000 
     16 CO3        33.8300   42.7030   22.9870 C.2       1 TGG351      0.0000 
     17 OC3        32.6200   42.8550   22.8220 O.co2     1 TGG351      0.0000 
     18 OT3        34.4510   43.5440   23.6360 O.co2     1 TGG351      0.0000 
     19 CB2        37.1200   41.3240   18.3760 C.3       1 TGG351      0.0000 
     20 SG2        38.7120   41.1640   19.2700 S.3       1 TGG351      0.0000 
     21 CD2        40.0040   41.1090   17.9710 C.3       1 TGG351      0.0000 
     22 CE2        39.5750   41.8630   16.7110 C.2       1 TGG351      0.0000 
     23 OE2        39.5260   43.0910   16.7220 O.co2     1 TGG351      0.0000 
     24 OF2        39.2940   41.2500   15.6810 O.co2     1 TGG351      0.0000 
     25 CF2        40.3900   39.6730   17.6040 C.3       1 TGG351      0.0000 
     26 CH2        41.5900   39.6310   16.6540 C.2       1 TGG351      0.0000 
     27 OI2        42.6450   40.1930   16.9430 O.co2     1 TGG351      0.0000 
     28 OJ2        41.5240   39.0170   15.5920 O.co2     1 TGG351      0.0000 
     29 H          37.4136   44.9152   16.0373 H         1 TGG351      0.0000 
     30 H          38.4750   46.8658   18.0932 H         1 TGG351      0.0000 
     31 H          38.4270   45.1222   18.4056 H         1 TGG351      0.0000 
     32 H          35.9277   46.6354   17.5395 H         1 TGG351      0.0000 
     33 H          36.4491   46.6148   19.2330 H         1 TGG351      0.0000 
     34 H          37.6456   43.8137   18.8538 H         1 TGG351      0.0000 
     35 H          35.1687   42.1769   18.5535 H         1 TGG351      0.0000 
     36 H          33.9903   41.6178   20.3313 H         1 TGG351      0.0000 
     37 H          35.4807   41.3416   22.9328 H         1 TGG351      0.0000 
     38 H          33.9176   40.6160   22.5202 H         1 TGG351      0.0000 
     39 H          37.4483   41.6078   17.3867 H         1 TGG351      0.0000 
     40 H          36.7637   40.3041   18.3725 H         1 TGG351      0.0000 
     41 H          40.8302   41.6115   18.4474 H         1 TGG351      0.0000 
     42 H          39.5378   39.1844   17.1264 H         1 TGG351      0.0000 
     43 H          40.6358   39.1244   18.5160 H         1 TGG351      0.0000 
     44 H          39.5049   44.2633   15.7276 H         1 TGG351      0.0000 
     45 H          39.9822   45.7767   15.4668 H         1 TGG351      0.0000 
     46 H          40.0230   45.1656   16.9538 H         1 TGG351      0.0000 
@<TRIPOS>BOND
     1    2    1 ar   
     2    3    2 ar   
     3    4    2 1    
     4    5    4 1    
     5    6    4 1    
     6   29    4 1    
     7   44    5 1    
     8   45    5 1    
     9   46    5 1    
    10    7    6 1    
    11   30    6 1    
    12   31    6 1    
    13    8    7 1    
    14   32    7 1    
    15   33    7 1    
    16    9    8 2    
    17   10    8 am   
    18   11   10 1    
    19   34   10 1    
    20   12   11 1    
    21   19   11 1    
    22   35   11 1    
    23   13   12 2    
    24   14   12 am   
    25   15   14 1    
    26   36   14 1    
    27   16   15 1    
    28   37   15 1    
    29   38   15 1    
    30   17   16 ar   
    31   18   16 ar   
    32   20   19 1    
    33   39   19 1    
    34   40   19 1    
    35   21   20 1    
    36   22   21 1    
    37   25   21 1    
    38   41   21 1    
    39   23   22 ar   
    40   24   22 ar   
    41   26   25 1    
    42   42   25 1    
    43   43   25 1    
    44   27   26 ar   
    45   28   26 ar   
@<TRIPOS>SUBSTRUCTURE
     1 TGG351      1 GROUP   
@<TRIPOS>SET

