#    Name: 2ga9_AGS_1_INTS_M
#    Modification time : Tue Mar 25 13:51:22 2014

@<TRIPOS>MOLECULE
2ga9_AGS_1_INTS_M
   55     0    12     0     0
SMALL
NO_CHARGES


@<TRIPOS>ATOM
      1 CA         20.0515   15.1815   26.6355 C.3       4 GLC5        0.0000 
      2 CA         19.3480   16.8870   26.2830 C.3      12 GLL5        0.0000 
      3 CA         20.7550   13.4760   26.9880 C.3       8 GLP5        0.0000 
      4 CA         19.5450   16.1935   28.2000 C.3       4 GLC5        0.0000 
      5 CA         19.7420   15.5000   30.1170 C.3       8 GLP5        0.0000 
      6 CA         20.0845   18.4335   24.8690 C.3       4 GLC5        0.0000 
      7 CA         20.8210   19.9800   23.4550 C.3       8 GLP5        0.0000 
      8 NZ         19.1995   19.1385   23.2790 N.4       3 LYC4        0.0000 
      9 NZ         18.9140   17.8420   23.5730 N.4      11 LYL4        0.0000 
     10 NZ         19.4850   20.4350   22.9850 N.4       7 LYP4        0.0000 
     11 N          19.1995   19.1385   23.2790 N.am      2 SEC2        0.0000 
     12 N          18.9140   17.8420   23.5730 N.am     10 SEL2        0.0000 
     13 N          19.4850   20.4350   22.9850 N.am      6 SEP2        0.0000 
     14 N          20.5070   12.8125   24.7075 N.am      2 SEC2        0.0000 
     15 N          20.0930   13.9210   24.1310 N.am     10 SEL2        0.0000 
     16 N          20.9210   11.7040   25.2840 N.am      6 SEP2        0.0000 
     17 N          20.6235   14.2810   25.2205 N.am      2 SEC2        0.0000 
     18 N          21.1540   14.6410   26.3100 N.am      6 SEP2        0.0000 
     19 N          18.4020   15.9635   19.0120 N.am      2 SEC2        0.0000 
     20 N          19.0600   15.0150   20.3020 N.am     10 SEL2        0.0000 
     21 N          17.7440   16.9120   17.7220 N.am      6 SEP2        0.0000 
     22 CA         17.8005   10.2680   20.5060 C.3       4 GLC5        0.0000 
     23 CA         18.7930   11.9120   20.4850 C.3      12 GLL5        0.0000 
     24 CA         16.8080    8.6240   20.5270 C.3       8 GLP5        0.0000 
     25 CA         18.7950    9.6645   20.2075 C.3       4 GLC5        0.0000 
     26 CA         19.6090   11.2730   19.3660 C.3      12 GLL5        0.0000 
     27 CA         17.9810    8.0560   21.0490 C.3       8 GLP5        0.0000 
     28 CA         22.6160   11.9265   16.2670 C.3       4 GLC5        0.0000 
     29 CA         20.8250   11.5490   17.3530 C.3      12 GLL5        0.0000 
     30 CA         24.4070   12.3040   15.1810 C.3       8 GLP5        0.0000 
     31 CA         19.2125   14.2340   14.3760 C.3       4 GLC5        0.0000 
     32 CA         17.9010   13.0510   14.4190 C.3      12 GLL5        0.0000 
     33 CA         20.5240   15.4170   14.3330 C.3       8 GLP5        0.0000 
     34 CA         19.4940   13.7620   13.3315 C.3       4 GLC5        0.0000 
     35 CA         17.7750   13.2780   13.0200 C.3      12 GLL5        0.0000 
     36 CA         21.2130   14.2460   13.6430 C.3       8 GLP5        0.0000 
     37 O          16.9255   14.2405   10.9985 O.2       1 ALC1        0.0000 
     38 O          17.0300   14.3550   12.5710 O.2       9 ALL1        0.0000 
     39 O          16.8210   14.1260    9.4260 O.2       5 ALP1        0.0000 
     40 N          18.6950   12.9350   10.6960 N.am      2 SEC2        0.0000 
     41 N          18.4520   12.4920   12.1560 N.am     10 SEL2        0.0000 
     42 N          18.9380   13.3780    9.2360 N.am      6 SEP2        0.0000 
     43 CA         20.1870   11.1065   10.8985 C.3       4 GLC5        0.0000 
     44 CA         19.2230   11.4640   12.5520 C.3      12 GLL5        0.0000 
     45 CA         21.1510   10.7490    9.2450 C.3       8 GLP5        0.0000 
     46 CA         20.2180   12.8550   13.0975 C.3       4 GLC5        0.0000 
     47 CA         19.9625   13.0940   14.2220 C.3       4 GLC5        0.0000 
     48 CA         18.7120   11.9420   14.8010 C.3      12 GLL5        0.0000 
     49 CA         19.8185   10.8362   21.7357 C.3       4 GLC5        0.0000 
     50 CA         20.4360   10.0800   23.5460 C.3       8 GLP5        0.0000 
     51 CA         20.6260   13.5987   17.0935 C.3       4 GLC5        0.0000 
     52 CA         20.6330   12.2360   18.7290 C.3      12 GLL5        0.0000 
     53 CA         20.5230   15.3050   16.1460 C.3       8 GLP5        0.0000 
     54 CA         21.0748    9.8575   15.9743 C.3       4 GLC5        0.0000 
     55 CA         22.0270    8.4520   14.7580 C.3       8 GLP5        0.0000 
@<TRIPOS>BOND
@<TRIPOS>SUBSTRUCTURE
     1 ALC1       37 GROUP        1 X    ALC  0     ROOT ALC X 1
     2 SEC2       11 GROUP        1 X    SEC  0     **** SEC X 2
     3 LYC4        8 GROUP        1 X    LYC  0     **** LYC X 4
     4 GLC5        1 GROUP        1 X    GLC  0     **** GLC X 6
     5 ALP1       39 GROUP        1 Y    ALP  0     ROOT ALP Y 8
     6 SEP2       13 GROUP        1 Y    SEP  0     **** SEP Y 9
     7 LYP4       10 GROUP        1 Y    LYP  0     **** LYP Y 11
     8 GLP5        3 GROUP        1 Y    GLP  0     **** GLP Y 13
     9 ALL1       38 GROUP        1 Z    ALL  0     ROOT ALL Z 15
    10 SEL2       12 GROUP        1 Z    SEL  0     **** SEL Z 16
    11 LYL4        9 GROUP        1 Z    LYL  0     **** LYL Z 18
    12 GLL5        2 GROUP        1 Z    GLL  0     **** GLL Z 20
@<TRIPOS>SET

