#    Name: 2ga9_AGS_1_ligand
#    Modification time : Tue Mar 25 13:51:22 2014

@<TRIPOS>MOLECULE
2ga9_AGS_1_ligand
   43    45     1     0     0
SMALL
NO_CHARGES


@<TRIPOS>ATOM
      1 PG         18.2980   16.9710   24.7660 P.3       1 AGS482      0.0000 
      2 S1G        19.3480   16.8870   26.2830 S.3       1 AGS482      0.0000 
      3 O2G        16.9670   17.7460   25.2040 O.co2     1 AGS482      0.0000 
      4 O3G        18.9140   17.8420   23.5730 O.co2     1 AGS482      0.0000 
      5 PB         19.1800   14.7810   23.3650 P.3       1 AGS482      0.0000 
      6 O1B        20.0930   13.9210   24.1310 O.co2     1 AGS482      0.0000 
      7 O2B        20.1530   15.7580   22.5430 O.co2     1 AGS482      0.0000 
      8 O3B        18.0280   15.4750   24.2770 O.3       1 AGS482      0.0000 
      9 PA         17.9190   14.1590   21.0080 P.3       1 AGS482      0.0000 
     10 O1A        16.6760   14.9490   21.0650 O.co2     1 AGS482      0.0000 
     11 O2A        19.0600   15.0150   20.3020 O.co2     1 AGS482      0.0000 
     12 O3A        18.3380   13.7190   22.4970 O.3       1 AGS482      0.0000 
     13 O5'        17.8110   12.8630   20.0500 O.3       1 AGS482      0.0000 
     14 C5'        18.7930   11.9120   20.4850 C.3       1 AGS482      0.0000 
     15 C4'        19.6090   11.2730   19.3660 C.3       1 AGS482      0.0000 
     16 O4'        18.7660   10.7670   18.2980 O.3       1 AGS482      0.0000 
     17 C3'        20.6330   12.2360   18.7290 C.3       1 AGS482      0.0000 
     18 O3'        21.8320   12.3360   19.5120 O.3       1 AGS482      0.0000 
     19 C2'        20.8250   11.5490   17.3530 C.3       1 AGS482      0.0000 
     20 O2'        21.8020   10.5040   17.3950 O.3       1 AGS482      0.0000 
     21 C1'        19.4200   10.9770   17.0280 C.3       1 AGS482      0.0000 
     22 N9         18.6820   11.9350   16.1780 N.pl3     1 AGS482      0.0000 
     23 C8         17.8350   12.9450   16.5600 C.2       1 AGS482      0.0000 
     24 N7         17.3670   13.5910   15.5390 N.2       1 AGS482      0.0000 
     25 C5         17.9010   13.0510   14.4190 C.ar      1 AGS482      0.0000 
     26 C6         17.7750   13.2780   13.0200 C.ar      1 AGS482      0.0000 
     27 N6         17.0300   14.3550   12.5710 N.pl3     1 AGS482      0.0000 
     28 N1         18.4520   12.4920   12.1560 N.ar      1 AGS482      0.0000 
     29 C2         19.2230   11.4640   12.5520 C.ar      1 AGS482      0.0000 
     30 N3         19.3680   11.2150   13.8610 N.ar      1 AGS482      0.0000 
     31 C4         18.7120   11.9420   14.8010 C.ar      1 AGS482      0.0000 
     32 H          18.3165   11.0835   21.0644 H         1 AGS482      0.0000 
     33 H          19.5151   12.3818   21.1971 H         1 AGS482      0.0000 
     34 H          20.1848   10.4398   19.7910 H         1 AGS482      0.0000 
     35 H          20.1306   13.1546   18.5582 H         1 AGS482      0.0000 
     36 H          21.0327   12.3070   16.6366 H         1 AGS482      0.0000 
     37 H          19.5709   10.0496   16.5149 H         1 AGS482      0.0000 
     38 H          17.6319   13.1255   17.5156 H         1 AGS482      0.0000 
     39 H          16.6130   14.2555   11.6675 H         1 AGS482      0.0000 
     40 H          16.9734   15.1391   13.1890 H         1 AGS482      0.0000 
     41 H          19.7023   10.8678   11.8465 H         1 AGS482      0.0000 
     42 H          22.4581   11.6660   19.1130 H         1 AGS482      0.0000 
     43 H          21.2985    9.6907   17.6863 H         1 AGS482      0.0000 
@<TRIPOS>BOND
     1    2    1 1    
     2    3    1 ar   
     3    4    1 ar   
     4    8    1 1    
     5    6    5 ar   
     6    7    5 ar   
     7    8    5 1    
     8   12    5 1    
     9   10    9 ar   
    10   11    9 ar   
    11   12    9 1    
    12   13    9 1    
    13   14   13 1    
    14   15   14 1    
    15   32   14 1    
    16   33   14 1    
    17   16   15 1    
    18   17   15 1    
    19   34   15 1    
    20   21   16 1    
    21   18   17 1    
    22   19   17 1    
    23   35   17 1    
    24   42   18 1    
    25   20   19 1    
    26   21   19 1    
    27   36   19 1    
    28   43   20 1    
    29   22   21 1    
    30   37   21 1    
    31   23   22 1    
    32   31   22 1    
    33   24   23 2    
    34   38   23 1    
    35   25   24 1    
    36   26   25 ar   
    37   31   25 ar   
    38   27   26 1    
    39   28   26 ar   
    40   39   27 1    
    41   40   27 1    
    42   29   28 ar   
    43   30   29 ar   
    44   41   29 1    
    45   31   30 ar   
@<TRIPOS>SUBSTRUCTURE
     1 AGS482      1 GROUP   
@<TRIPOS>SET

