#    Name: 1fcz_156_1_INTS_M
#    Modification time : Tue Mar 25 01:05:12 2014

@<TRIPOS>MOLECULE
1fcz_156_1_INTS_M
   99     0     6     0     0
SMALL
NO_CHARGES


@<TRIPOS>ATOM
      1 CA         36.4020   19.9370   85.8630 C.3       2 GLC5        0.0000 
      2 CA         36.7020   18.0550   86.7590 C.3       6 GLL5        0.0000 
      3 CA         36.1020   21.8190   84.9670 C.3       4 GLP5        0.0000 
      4 CA         38.9410   12.0025   86.5850 C.3       2 GLC5        0.0000 
      5 CA         38.9030   13.9020   85.5560 C.3       6 GLL5        0.0000 
      6 CA         38.9790   10.1030   87.6140 C.3       4 GLP5        0.0000 
      7 CA         37.3315   12.7970   85.5150 C.3       2 GLC5        0.0000 
      8 CA         35.7600   11.6920   85.4740 C.3       4 GLP5        0.0000 
      9 CA         38.5365   13.3060   83.4935 C.3       2 GLC5        0.0000 
     10 CA         38.1700   12.7100   81.4310 C.3       4 GLP5        0.0000 
     11 CA         36.7780   16.9360   89.6900 C.3       2 GLC5        0.0000 
     12 CA         36.0880   16.1610   88.0620 C.3       6 GLL5        0.0000 
     13 CA         37.4680   17.7110   91.3180 C.3       4 GLP5        0.0000 
     14 CA         35.9375   14.6330   89.6860 C.3       2 GLC5        0.0000 
     15 CA         35.7870   13.1050   91.3100 C.3       4 GLP5        0.0000 
     16 CA         41.9140   11.2330   83.3145 C.3       2 GLC5        0.0000 
     17 CA         41.5000   13.2540   82.8490 C.3       6 GLL5        0.0000 
     18 CA         42.3280    9.2120   83.7800 C.3       4 GLP5        0.0000 
     19 CA         44.7385   12.3575   78.7465 C.3       2 GLC5        0.0000 
     20 CA         44.5010   13.6010   80.5050 C.3       6 GLL5        0.0000 
     21 CA         44.9760   11.1140   76.9880 C.3       4 GLP5        0.0000 
     22 CA         46.5095   13.6120   79.7725 C.3       2 GLC5        0.0000 
     23 CA         48.5180   13.6230   79.0400 C.3       4 GLP5        0.0000 
     24 CA         46.7455   14.5265   80.6145 C.3       2 GLC5        0.0000 
     25 CA         44.7060   15.0800   80.7250 C.3       6 GLL5        0.0000 
     26 CA         48.7850   13.9730   80.5040 C.3       4 GLP5        0.0000 
     27 CA         46.2060   16.3815   79.7755 C.3       2 GLC5        0.0000 
     28 CA         47.7060   17.6830   78.8260 C.3       4 GLP5        0.0000 
     29 CA         44.4530   15.5895   85.4860 C.3       2 GLC5        0.0000 
     30 CA         42.8760   15.2680   84.0460 C.3       6 GLL5        0.0000 
     31 CA         46.0300   15.9110   86.9260 C.3       4 GLP5        0.0000 
     32 CA         41.2645   15.4255   80.3760 C.3       2 GLC5        0.0000 
     33 CA         42.0810   13.6990   79.8090 C.3       6 GLL5        0.0000 
     34 CA         40.4480   17.1520   80.9430 C.3       4 GLP5        0.0000 
     35 CA         41.1335   12.8045   78.3090 C.3       2 GLC5        0.0000 
     36 CA         40.1860   11.9100   76.8090 C.3       4 GLP5        0.0000 
     37 CA         43.4205   14.8310   78.4800 C.3       2 GLC5        0.0000 
     38 CA         44.7600   15.9630   77.1510 C.3       4 GLP5        0.0000 
     39 CA         42.6690   10.4340   82.3265 C.3       2 GLC5        0.0000 
     40 CA         43.0100   11.6560   80.8730 C.3       6 GLL5        0.0000 
     41 CA         40.9780   11.3480   80.3840 C.3       2 GLC5        0.0000 
     42 CA         38.9460   11.0400   79.8950 C.3       4 GLP5        0.0000 
     43 CA         42.9635    9.7545   80.4305 C.3       2 GLC5        0.0000 
     44 CA         42.9170    7.8530   79.9880 C.3       4 GLP5        0.0000 
     45 CA         44.3365   10.3275   81.3865 C.3       2 GLC5        0.0000 
     46 CA         45.6630    8.9990   81.9000 C.3       4 GLP5        0.0000 
     47 CA         43.9930   11.3850   78.9305 C.3       2 GLC5        0.0000 
     48 CA         44.4600   18.3230   80.7545 C.3       2 GLC5        0.0000 
     49 CA         44.4830   16.9790   82.2380 C.3       6 GLL5        0.0000 
     50 CA         44.4370   19.6670   79.2710 C.3       4 GLP5        0.0000 
     51 CA         42.4655   17.0655   81.5905 C.3       2 GLC5        0.0000 
     52 CA         46.3400   17.7370   81.2880 C.3       2 GLC5        0.0000 
     53 CA         48.1970   18.4950   80.3380 C.3       4 GLP5        0.0000 
     54 CA         45.8355   17.9280   83.1390 C.3       2 GLC5        0.0000 
     55 CA         47.1880   18.8770   84.0400 C.3       4 GLP5        0.0000 
     56 CA         44.9815   13.7575   84.5380 C.3       2 GLC5        0.0000 
     57 CA         45.8510   15.0530   82.9860 C.3       6 GLL5        0.0000 
     58 CA         44.1120   12.4620   86.0900 C.3       4 GLP5        0.0000 
     59 CA         47.3180   14.5130   81.7450 C.3       2 GLC5        0.0000 
     60 CA         46.5195   16.9650   83.5130 C.3       2 GLC5        0.0000 
     61 CA         45.9405   15.4820   84.9560 C.3       2 GLC5        0.0000 
     62 CA         47.6110   14.5915   83.7440 C.3       2 GLC5        0.0000 
     63 CA         49.3710   14.1300   84.5020 C.3       4 GLP5        0.0000 
     64 N          32.9940   19.5210   87.9645 N.am      1 SEC2        0.0000 
     65 N          34.4060   19.3090   87.8470 N.am      5 SEL2        0.0000 
     66 N          31.5820   19.7330   88.0820 N.am      3 SEP2        0.0000 
     67 N          33.5680   19.2585   89.3230 N.am      1 SEC2        0.0000 
     68 N          32.7300   19.2080   90.7990 N.am      3 SEP2        0.0000 
     69 N          32.5795   17.2420   89.3830 N.am      1 SEC2        0.0000 
     70 N          34.2180   17.7630   89.4120 N.am      5 SEL2        0.0000 
     71 N          30.9410   16.7210   89.3540 N.am      3 SEP2        0.0000 
     72 N          33.4740   18.4855   90.1055 N.am      1 SEC2        0.0000 
     73 CA         37.1932   18.4443   88.7862 C.3       2 GLC5        0.0000 
     74 CA         35.7910   17.5340   87.6320 C.3       6 GLL5        0.0000 
     75 CA         38.1400   19.0940   90.3770 C.3       4 GLP5        0.0000 
     76 CA         38.6363   18.8803   86.3948 C.3       2 GLC5        0.0000 
     77 CA         40.0920   20.0440   86.3820 C.3       4 GLP5        0.0000 
     78 CA         39.0057   16.5155   87.8038 C.3       2 GLC5        0.0000 
     79 CA         37.6590   17.3780   86.0560 C.3       6 GLL5        0.0000 
     80 CA         40.2870   16.3370   89.4380 C.3       4 GLP5        0.0000 
     81 CA         38.6105   15.6067   83.8150 C.3       2 GLC5        0.0000 
     82 CA         38.6810   15.1990   85.5140 C.3       6 GLL5        0.0000 
     83 CA         38.4290   16.6630   82.0950 C.3       4 GLP5        0.0000 
     84 CA         39.7900   14.2363   87.1335 C.3       2 GLC5        0.0000 
     85 CA         40.7880   13.9220   88.7320 C.3       4 GLP5        0.0000 
     86 CA         38.4140   16.0715   88.5500 C.3       2 GLC5        0.0000 
     87 CA         36.9940   15.4510   87.2620 C.3       6 GLL5        0.0000 
     88 CA         35.8095   14.3559   86.7496 C.3       2 GLC5        0.0000 
     89 CA         37.7900   16.0100   86.2830 C.3       6 GLL5        0.0000 
     90 CA         34.8790   12.7660   86.0820 C.3       4 GLP5        0.0000 
     91 CA         42.6925   12.9767   84.7760 C.3       2 GLC5        0.0000 
     92 CA         41.0460   13.7290   84.0750 C.3       6 GLL5        0.0000 
     93 CA         43.5523   13.3747   84.3003 C.3       2 GLC5        0.0000 
     94 CA         42.6370   13.7640   82.1980 C.3       6 GLL5        0.0000 
     95 CA         44.6818   15.1517   78.8830 C.3       2 GLC5        0.0000 
     96 CA         43.2180   13.7378   85.2223 C.3       2 GLC5        0.0000 
     97 CA         42.4045   15.3582   86.3912 C.3       2 GLC5        0.0000 
     98 CA         41.7720   14.7590   84.6630 C.3       6 GLL5        0.0000 
     99 CA         42.4850   15.7030   88.4280 C.3       4 GLP5        0.0000 
@<TRIPOS>BOND
@<TRIPOS>SUBSTRUCTURE
     1 SEC2       64 GROUP        1 X    SEC  0     ROOT SEC X 2
     2 GLC5        1 GROUP        1 X    GLC  0     **** GLC X 6
     3 SEP2       66 GROUP        1 Y    SEP  0     ROOT SEP Y 9
     4 GLP5        3 GROUP        1 Y    GLP  0     **** GLP Y 13
     5 SEL2       65 GROUP        1 Z    SEL  0     ROOT SEL Z 16
     6 GLL5        2 GROUP        1 Z    GLL  0     **** GLL Z 20
@<TRIPOS>SET

