#    Name: 1fcz_156_1_ligand
#    Modification time : Tue Mar 25 01:05:12 2014

@<TRIPOS>MOLECULE
1fcz_156_1_ligand
   52    54     1     0     0
SMALL
NO_CHARGES


@<TRIPOS>ATOM
      1 C1         34.7480   18.1560   88.4120 C.2       1 156450      0.0000 
      2 C2         35.7910   17.5340   87.6320 C.ar      1 156450      0.0000 
      3 C3         36.7020   18.0550   86.7590 C.ar      1 156450      0.0000 
      4 C4         37.6590   17.3780   86.0560 C.ar      1 156450      0.0000 
      5 C5         37.7900   16.0100   86.2830 C.ar      1 156450      0.0000 
      6 C8         38.6810   15.1990   85.5140 C.2       1 156450      0.0000 
      7 C9         38.9030   13.9020   85.5560 C.2       1 156450      0.0000 
      8 C6         36.9940   15.4510   87.2620 C.ar      1 156450      0.0000 
      9 C7         36.0880   16.1610   88.0620 C.ar      1 156450      0.0000 
     10 C10        39.8460   13.1440   84.6980 C.2       1 156450      0.0000 
     11 C11        41.0460   13.7290   84.0750 C.ar      1 156450      0.0000 
     12 C12        41.5000   13.2540   82.8490 C.ar      1 156450      0.0000 
     13 C13        42.6370   13.7640   82.1980 C.ar      1 156450      0.0000 
     14 C14        43.0510   13.1680   80.8440 C.3       1 156450      0.0000 
     15 C15        44.5010   13.6010   80.5050 C.3       1 156450      0.0000 
     16 C16        44.7060   15.0800   80.7250 C.3       1 156450      0.0000 
     17 C17        44.5920   15.4510   82.2180 C.3       1 156450      0.0000 
     18 C18        43.3480   14.8110   82.8230 C.ar      1 156450      0.0000 
     19 C19        42.8760   15.2680   84.0460 C.ar      1 156450      0.0000 
     20 C20        41.7720   14.7590   84.6630 C.ar      1 156450      0.0000 
     21 C21        42.0810   13.6990   79.8090 C.3       1 156450      0.0000 
     22 C22        43.0100   11.6560   80.8730 C.3       1 156450      0.0000 
     23 C23        44.4830   16.9790   82.2380 C.3       1 156450      0.0000 
     24 C24        45.8510   15.0530   82.9860 C.3       1 156450      0.0000 
     25 O1         34.4060   19.3090   87.8470 O.co2     1 156450      0.0000 
     26 O2         34.2180   17.7630   89.4120 O.co2     1 156450      0.0000 
     27 O3         39.5140   11.9680   84.4180 O.2       1 156450      0.0000 
     28 H          36.6624   19.1315   86.6048 H         1 156450      0.0000 
     29 H          38.2630   17.8476   85.3850 H         1 156450      0.0000 
     30 H          39.2586   15.7916   84.7769 H         1 156450      0.0000 
     31 H          38.3832   13.2773   86.2563 H         1 156450      0.0000 
     32 H          37.0671   14.4036   87.4286 H         1 156450      0.0000 
     33 H          35.6598   15.7917   88.8680 H         1 156450      0.0000 
     34 H          40.9724   12.4772   82.3822 H         1 156450      0.0000 
     35 H          44.7001   13.3477   79.4617 H         1 156450      0.0000 
     36 H          45.1860   13.0313   81.1362 H         1 156450      0.0000 
     37 H          43.9557   15.6457   80.1683 H         1 156450      0.0000 
     38 H          45.6954   15.3747   80.3685 H         1 156450      0.0000 
     39 H          43.4078   16.0522   84.5152 H         1 156450      0.0000 
     40 H          41.4615   15.1345   85.5779 H         1 156450      0.0000 
     41 H          42.1010   14.6976   79.7590 H         1 156450      0.0000 
     42 H          42.2900   13.3555   78.8934 H         1 156450      0.0000 
     43 H          41.1385   13.4346   80.0132 H         1 156450      0.0000 
     44 H          43.2742   11.2604   79.9934 H         1 156450      0.0000 
     45 H          43.6307   11.2808   81.5614 H         1 156450      0.0000 
     46 H          42.0949   11.3133   81.0855 H         1 156450      0.0000 
     47 H          45.2826   17.4138   81.8238 H         1 156450      0.0000 
     48 H          43.6809   17.3007   81.7349 H         1 156450      0.0000 
     49 H          44.4062   17.3337   83.1698 H         1 156450      0.0000 
     50 H          46.6653   15.5079   82.6255 H         1 156450      0.0000 
     51 H          45.7863   15.2923   83.9548 H         1 156450      0.0000 
     52 H          46.0197   14.0685   82.9379 H         1 156450      0.0000 
@<TRIPOS>BOND
     1    2    1 1    
     2   25    1 ar   
     3   26    1 ar   
     4    3    2 ar   
     5    9    2 ar   
     6    4    3 ar   
     7   28    3 1    
     8    5    4 ar   
     9   29    4 1    
    10    6    5 1    
    11    8    5 ar   
    12    7    6 2    
    13   30    6 1    
    14   10    7 1    
    15   31    7 1    
    16    9    8 ar   
    17   32    8 1    
    18   33    9 1    
    19   11   10 1    
    20   27   10 2    
    21   12   11 ar   
    22   20   11 ar   
    23   13   12 ar   
    24   34   12 1    
    25   14   13 1    
    26   18   13 ar   
    27   15   14 1    
    28   21   14 1    
    29   22   14 1    
    30   16   15 1    
    31   35   15 1    
    32   36   15 1    
    33   17   16 1    
    34   37   16 1    
    35   38   16 1    
    36   18   17 1    
    37   23   17 1    
    38   24   17 1    
    39   19   18 ar   
    40   20   19 ar   
    41   39   19 1    
    42   40   20 1    
    43   41   21 1    
    44   42   21 1    
    45   43   21 1    
    46   44   22 1    
    47   45   22 1    
    48   46   22 1    
    49   47   23 1    
    50   48   23 1    
    51   49   23 1    
    52   50   24 1    
    53   51   24 1    
    54   52   24 1    
@<TRIPOS>SUBSTRUCTURE
     1 156450      1 GROUP   
@<TRIPOS>SET

