#    Name: 3qtt_ANP_2_INTS_M
#    Modification time : Mon Apr  7 19:51:11 2014

@<TRIPOS>MOLECULE
3qtt_ANP_2_INTS_M
   76     0    12     0     0
SMALL
NO_CHARGES


@<TRIPOS>ATOM
      1 NZ         11.2415   46.0485  158.9080 N.4       3 LYC4        0.0000 
      2 NZ         10.2320   45.8080  159.6470 N.4      11 LYL4        0.0000 
      3 NZ         12.2510   46.2890  158.1690 N.4       7 LYP4        0.0000 
      4 N           9.4865   46.6605  158.7960 N.am      2 SEC2        0.0000 
      5 N          10.2320   45.8080  159.6470 N.am     10 SEL2        0.0000 
      6 N           8.7410   47.5130  157.9450 N.am      6 SEP2        0.0000 
      7 N           7.6390   45.7155  162.7770 N.am      2 SEC2        0.0000 
      8 N           8.6170   46.2170  161.5440 N.am     10 SEL2        0.0000 
      9 N           6.6610   45.2140  164.0100 N.am      6 SEP2        0.0000 
     10 N           7.6950   45.6830  160.1890 N.am      2 SEC2        0.0000 
     11 N           6.7730   45.1490  158.8340 N.am      6 SEP2        0.0000 
     12 N           8.5705   43.0995  159.2030 N.am      2 SEC2        0.0000 
     13 N           8.7140   43.9380  160.2750 N.am     10 SEL2        0.0000 
     14 N           8.4270   42.2610  158.1310 N.am      6 SEP2        0.0000 
     15 N           7.7435   44.5435  159.5545 N.am      2 SEC2        0.0000 
     16 N           9.6680   41.6225  165.8165 N.am      2 SEC2        0.0000 
     17 N          10.6990   42.3860  165.0450 N.am     10 SEL2        0.0000 
     18 N           8.6370   40.8590  166.5880 N.am      6 SEP2        0.0000 
     19 N           9.3700   41.6405  162.2270 N.am      2 SEC2        0.0000 
     20 N           9.6120   42.8070  163.0130 N.am     10 SEL2        0.0000 
     21 N           9.1280   40.4740  161.4410 N.am      6 SEP2        0.0000 
     22 CA         11.2930   40.0250  164.8910 C.3       4 GLC5        0.0000 
     23 CA         12.3920   41.0010  163.4400 C.3      12 GLL5        0.0000 
     24 CA         10.1940   39.0490  166.3420 C.3       8 GLP5        0.0000 
     25 CA         14.4530   38.9950  161.7910 C.3       4 GLC5        0.0000 
     26 CA         13.5780   40.5010  162.7540 C.3      12 GLL5        0.0000 
     27 CA         15.3280   37.4890  160.8280 C.3       8 GLP5        0.0000 
     28 N          16.8855   41.8055  162.8105 N.am      2 SEC2        0.0000 
     29 N          15.8960   40.8760  162.8540 N.am     10 SEL2        0.0000 
     30 N          17.8750   42.7350  162.7670 N.am      6 SEP2        0.0000 
     31 N          16.9580   40.6030  161.7645 N.am      2 SEC2        0.0000 
     32 N          18.0200   40.3300  160.6750 N.am      6 SEP2        0.0000 
     33 N          16.7750   42.8150  161.9345 N.am      2 SEC2        0.0000 
     34 N          15.6750   42.8950  161.1020 N.am     10 SEL2        0.0000 
     35 O          15.5765   44.2185  161.1370 O.2       1 ALC1        0.0000 
     36 O          15.6750   42.8950  161.1020 O.2       9 ALL1        0.0000 
     37 O          15.4780   45.5420  161.1720 O.2       5 ALP1        0.0000 
     38 CA         14.7255   39.2905  160.7150 C.3       4 GLC5        0.0000 
     39 CA         14.1230   41.0920  160.6020 C.3      12 GLL5        0.0000 
     40 N          12.2525   44.5940  158.1555 N.am      2 SEC2        0.0000 
     41 N          12.2540   42.8990  158.1420 N.am     10 SEL2        0.0000 
     42 N          12.2510   46.2890  158.1690 N.am      6 SEP2        0.0000 
     43 CA         14.8855   42.2160  154.6275 C.3       4 GLC5        0.0000 
     44 CA         13.1410   42.1470  155.9420 C.3      12 GLL5        0.0000 
     45 CA         16.6300   42.2850  153.3130 C.3       8 GLP5        0.0000 
     46 CA         12.8945   40.9780  154.0545 C.3       4 GLC5        0.0000 
     47 CA         12.6480   39.8090  152.1670 C.3       8 GLP5        0.0000 
     48 O          12.3100   42.9005  153.5150 O.2       1 ALC1        0.0000 
     49 O          12.3160   42.9680  155.1700 O.2       9 ALL1        0.0000 
     50 O          12.3040   42.8330  151.8600 O.2       5 ALP1        0.0000 
     51 O          11.3190   43.7375  155.3775 O.2       1 ALC1        0.0000 
     52 O          10.3220   44.5070  155.5850 O.2       5 ALP1        0.0000 
     53 N          14.2855   41.3070  153.9740 N.am      2 SEC2        0.0000 
     54 N          14.0210   41.3220  155.3930 N.am     10 SEL2        0.0000 
     55 N          14.5500   41.2920  152.5550 N.am      6 SEP2        0.0000 
     56 CA         13.0200   39.7565  155.9060 C.3       4 GLC5        0.0000 
     57 CA         14.7940   40.5450  156.1620 C.3      12 GLL5        0.0000 
     58 CA         11.2460   38.9680  155.6500 C.3       8 GLP5        0.0000 
     59 CA         15.2355   38.8680  157.2730 C.3       4 GLC5        0.0000 
     60 CA         15.6770   37.1910  158.3840 C.3       8 GLP5        0.0000 
     61 CA         15.7120   41.4150  154.7375 C.3       4 GLC5        0.0000 
     62 CA         14.0820   39.5845  154.4535 C.3       4 GLC5        0.0000 
     63 CA         13.3700   38.6240  152.7450 C.3       8 GLP5        0.0000 
     64 CA         15.9285   41.1480  158.7265 C.3       4 GLC5        0.0000 
     65 CA         13.8550   41.3860  158.1120 C.3      12 GLL5        0.0000 
     66 CA         18.0020   40.9100  159.3410 C.3       8 GLP5        0.0000 
     67 CA         11.3750   40.0125  162.1725 C.3       4 GLC5        0.0000 
     68 CA          9.7650   39.2740  161.2480 C.3       8 GLP5        0.0000 
     69 CA         13.9295   41.5370  164.7040 C.3       4 GLC5        0.0000 
     70 CA         14.0290   41.9380  166.4680 C.3       8 GLP5        0.0000 
     71 CA         16.1650   41.2742  160.2045 C.3       4 GLC5        0.0000 
     72 CA         14.5330   42.1850  161.5340 C.3      12 GLL5        0.0000 
     73 CA         13.2118   44.0127  156.9495 C.3       4 GLC5        0.0000 
     74 CA         13.3320   45.8590  157.2630 C.3       8 GLP5        0.0000 
     75 CA         12.3596   40.3721  156.5120 C.3       4 GLC5        0.0000 
     76 CA         13.0420   42.1860  157.3300 C.3      12 GLL5        0.0000 
@<TRIPOS>BOND
@<TRIPOS>SUBSTRUCTURE
     1 ALC1       35 GROUP        1 X    ALC  0     ROOT ALC X 1
     2 SEC2        4 GROUP        1 X    SEC  0     **** SEC X 2
     3 LYC4        1 GROUP        1 X    LYC  0     **** LYC X 4
     4 GLC5       22 GROUP        1 X    GLC  0     **** GLC X 6
     5 ALP1       37 GROUP        1 Y    ALP  0     ROOT ALP Y 8
     6 SEP2        6 GROUP        1 Y    SEP  0     **** SEP Y 9
     7 LYP4        3 GROUP        1 Y    LYP  0     **** LYP Y 11
     8 GLP5       24 GROUP        1 Y    GLP  0     **** GLP Y 13
     9 ALL1       36 GROUP        1 Z    ALL  0     ROOT ALL Z 15
    10 SEL2        5 GROUP        1 Z    SEL  0     **** SEL Z 16
    11 LYL4        2 GROUP        1 Z    LYL  0     **** LYL Z 18
    12 GLL5       23 GROUP        1 Z    GLL  0     **** GLL Z 20
@<TRIPOS>SET

