#    Name: 3qtt_ANP_2_ligand
#    Modification time : Mon Apr  7 19:51:11 2014

@<TRIPOS>MOLECULE
3qtt_ANP_2_ligand
   43    45     1     0     0
SMALL
NO_CHARGES


@<TRIPOS>ATOM
      1 PG          9.5270   45.1670  160.7660 P.3       1 ANP271      0.0000 
      2 O1G        10.2320   45.8080  159.6470 O.co2     1 ANP271      0.0000 
      3 O2G         8.6170   46.2170  161.5440 O.co2     1 ANP271      0.0000 
      4 O3G         8.7140   43.9380  160.2750 O.co2     1 ANP271      0.0000 
      5 PB         11.1270   45.4990  162.9160 P.3       1 ANP271      0.0000 
      6 O1B        10.1440   46.6320  163.4000 O.co2     1 ANP271      0.0000 
      7 O2B        12.4500   46.1480  162.4800 O.co2     1 ANP271      0.0000 
      8 N3B        10.5660   44.4370  161.7230 N.4       1 ANP271      0.0000 
      9 PA         10.8810   43.0250  163.7650 P.3       1 ANP271      0.0000 
     10 O1A        10.6990   42.3860  165.0450 O.co2     1 ANP271      0.0000 
     11 O2A         9.6120   42.8070  163.0130 O.co2     1 ANP271      0.0000 
     12 O3A        11.3000   44.5410  164.0840 O.3       1 ANP271      0.0000 
     13 O5'        11.9880   42.2550  163.0320 O.3       1 ANP271      0.0000 
     14 C5'        12.3920   41.0010  163.4400 C.3       1 ANP271      0.0000 
     15 C4'        13.5780   40.5010  162.7540 C.3       1 ANP271      0.0000 
     16 O4'        13.2540   40.2990  161.4170 O.3       1 ANP271      0.0000 
     17 C3'        14.6750   41.5210  162.7830 C.3       1 ANP271      0.0000 
     18 O3'        15.8960   40.8760  162.8540 O.3       1 ANP271      0.0000 
     19 C2'        14.5330   42.1850  161.5340 C.3       1 ANP271      0.0000 
     20 O2'        15.6750   42.8950  161.1020 O.3       1 ANP271      0.0000 
     21 C1'        14.1230   41.0920  160.6020 C.3       1 ANP271      0.0000 
     22 N9         13.5090   41.6540  159.3810 N.pl3     1 ANP271      0.0000 
     23 C8         12.5580   42.5760  159.3850 C.2       1 ANP271      0.0000 
     24 N7         12.2540   42.8990  158.1420 N.2       1 ANP271      0.0000 
     25 C5         13.0420   42.1860  157.3300 C.ar      1 ANP271      0.0000 
     26 C6         13.1410   42.1470  155.9420 C.ar      1 ANP271      0.0000 
     27 N6         12.3160   42.9680  155.1700 N.pl3     1 ANP271      0.0000 
     28 N1         14.0210   41.3220  155.3930 N.ar      1 ANP271      0.0000 
     29 C2         14.7940   40.5450  156.1620 C.ar      1 ANP271      0.0000 
     30 N3         14.7150   40.5640  157.5090 N.ar      1 ANP271      0.0000 
     31 C4         13.8550   41.3860  158.1120 C.ar      1 ANP271      0.0000 
     32 H          11.5666   40.2435  163.3077 H         1 ANP271      0.0000 
     33 H          12.5948   40.9788  164.5495 H         1 ANP271      0.0000 
     34 H          13.9286   39.6042  163.2167 H         1 ANP271      0.0000 
     35 H          14.4873   42.1837  163.5880 H         1 ANP271      0.0000 
     36 H          13.6526   42.8584  161.6048 H         1 ANP271      0.0000 
     37 H          15.0176   40.5329  160.3597 H         1 ANP271      0.0000 
     38 H          12.1446   42.9585  160.1903 H         1 ANP271      0.0000 
     39 H          12.4244   42.8933  154.1787 H         1 ANP271      0.0000 
     40 H          11.6878   43.5600  155.6749 H         1 ANP271      0.0000 
     41 H          15.4904   39.8938  155.7033 H         1 ANP271      0.0000 
     42 H          15.7254   40.0591  163.4051 H         1 ANP271      0.0000 
     43 H          15.4449   43.8593  161.2329 H         1 ANP271      0.0000 
@<TRIPOS>BOND
     1    2    1 ar   
     2    3    1 ar   
     3    4    1 ar   
     4    8    1 1    
     5    6    5 ar   
     6    7    5 ar   
     7    8    5 1    
     8   12    5 1    
     9   10    9 ar   
    10   11    9 ar   
    11   12    9 1    
    12   13    9 1    
    13   14   13 1    
    14   15   14 1    
    15   32   14 1    
    16   33   14 1    
    17   16   15 1    
    18   17   15 1    
    19   34   15 1    
    20   21   16 1    
    21   18   17 1    
    22   19   17 1    
    23   35   17 1    
    24   42   18 1    
    25   20   19 1    
    26   21   19 1    
    27   36   19 1    
    28   43   20 1    
    29   22   21 1    
    30   37   21 1    
    31   23   22 1    
    32   31   22 1    
    33   24   23 2    
    34   38   23 1    
    35   25   24 1    
    36   26   25 ar   
    37   31   25 ar   
    38   27   26 1    
    39   28   26 ar   
    40   39   27 1    
    41   40   27 1    
    42   29   28 ar   
    43   30   29 ar   
    44   41   29 1    
    45   31   30 ar   
@<TRIPOS>SUBSTRUCTURE
     1 ANP271      1 GROUP   
@<TRIPOS>SET

