#    Name: 1ie3_NAD_3_INTS_M
#    Modification time : Tue Mar 25 06:57:15 2014

@<TRIPOS>MOLECULE
1ie3_NAD_3_INTS_M
   84     0     9     0     0
SMALL
NO_CHARGES


@<TRIPOS>ATOM
      1 N          41.0625    6.8025   10.7505 N.am      2 SEC2        0.0000 
      2 N          42.0700    6.6710    9.4990 N.am      8 SEL2        0.0000 
      3 N          40.0550    6.9340   12.0020 N.am      5 SEP2        0.0000 
      4 N          44.9955   12.8055   10.0020 N.am      2 SEC2        0.0000 
      5 N          43.4790   12.6090    9.7580 N.am      8 SEL2        0.0000 
      6 N          46.5120   13.0020   10.2460 N.am      5 SEP2        0.0000 
      7 O          40.0040   12.6770   10.0640 O.2       1 ALC1        0.0000 
      8 O          40.2630   11.5080    9.4160 O.2       7 ALL1        0.0000 
      9 O          39.7450   13.8460   10.7120 O.2       4 ALP1        0.0000 
     10 O          40.3395   14.3980    8.2730 O.2       1 ALC1        0.0000 
     11 O          40.8690   13.4610    7.4530 O.2       7 ALL1        0.0000 
     12 O          39.8100   15.3350    9.0930 O.2       4 ALP1        0.0000 
     13 O          40.3070   13.6535    9.0825 O.2       1 ALC1        0.0000 
     14 CA         42.2600   14.0970   11.1105 C.3       3 GLC5        0.0000 
     15 CA         42.6820   13.5750    9.1610 C.3       9 GLL5        0.0000 
     16 CA         41.8380   14.6190   13.0600 C.3       6 GLP5        0.0000 
     17 CA         44.1260   13.7590   10.7200 C.3       3 GLC5        0.0000 
     18 CA         45.5700   13.9430   12.2790 C.3       6 GLP5        0.0000 
     19 CA         43.3920   16.7750    6.8155 C.3       3 GLC5        0.0000 
     20 CA         44.5500   16.5920    8.3580 C.3       9 GLL5        0.0000 
     21 CA         42.2340   16.9580    5.2730 C.3       6 GLP5        0.0000 
     22 CA         43.2615   18.7335    7.7350 C.3       3 GLC5        0.0000 
     23 CA         44.7940   17.9560    8.6060 C.3       9 GLL5        0.0000 
     24 CA         41.7290   19.5110    6.8640 C.3       6 GLP5        0.0000 
     25 CA         45.6830   18.2740   10.6080 C.3       3 GLC5        0.0000 
     26 CA         46.5720   18.5920   12.6100 C.3       6 GLP5        0.0000 
     27 CA         42.4890   16.2020   11.6665 C.3       3 GLC5        0.0000 
     28 CA         43.1400   17.7850   10.2730 C.3       9 GLL5        0.0000 
     29 CA         41.1865   17.5980   10.5930 C.3       3 GLC5        0.0000 
     30 CA         39.2330   17.4110   10.9130 C.3       6 GLP5        0.0000 
     31 CA         42.4345   18.6480    8.5685 C.3       3 GLC5        0.0000 
     32 CA         44.3550   16.6130   11.1585 C.3       3 GLC5        0.0000 
     33 CA         45.5700   15.4410   12.0440 C.3       6 GLP5        0.0000 
     34 CA         44.8560   18.1885   11.4415 C.3       3 GLC5        0.0000 
     35 CA         42.3525   16.5555    7.7045 C.3       3 GLC5        0.0000 
     36 CA         43.5840   15.9560    9.1310 C.3       9 GLL5        0.0000 
     37 CA         41.1210   17.1550    6.2780 C.3       6 GLP5        0.0000 
     38 N          42.3180    6.9540   13.5165 N.am      2 SEC2        0.0000 
     39 N          43.3490    7.5410   12.5760 N.am      8 SEL2        0.0000 
     40 N          41.2870    6.3670   14.4570 N.am      5 SEP2        0.0000 
     41 N          42.8500    8.5985   13.1040 N.am      2 SEC2        0.0000 
     42 N          42.3510    9.6560   13.6320 N.am      5 SEP2        0.0000 
     43 CA         48.9870    9.9540   13.9255 C.3       3 GLC5        0.0000 
     44 CA         47.5680    8.8260   12.9640 C.3       9 GLL5        0.0000 
     45 CA         50.4060   11.0820   14.8870 C.3       6 GLP5        0.0000 
     46 CA         48.1940    6.8795   10.1270 C.3       3 GLC5        0.0000 
     47 CA         48.4700    8.2570   11.8690 C.3       9 GLL5        0.0000 
     48 CA         47.9180    5.5020    8.3850 C.3       6 GLP5        0.0000 
     49 N          50.6400    9.8725   10.9955 N.am      2 SEC2        0.0000 
     50 N          49.4810    9.2110   11.5250 N.am      8 SEL2        0.0000 
     51 N          51.7990   10.5340   10.4660 N.am      5 SEP2        0.0000 
     52 CA         47.3400    6.7335   14.6085 C.3       3 GLC5        0.0000 
     53 CA         49.1760    7.4510   13.9630 C.3       9 GLL5        0.0000 
     54 CA         45.5040    6.0160   15.2540 C.3       6 GLP5        0.0000 
     55 CA         49.7910    9.2665   14.4250 C.3       3 GLC5        0.0000 
     56 CA         51.2840    7.4400   13.9505 C.3       3 GLC5        0.0000 
     57 CA         53.3920    7.4290   13.9380 C.3       6 GLP5        0.0000 
     58 CA         47.6630    6.2955   15.7105 C.3       3 GLC5        0.0000 
     59 CA         49.8220    6.5750   16.1670 C.3       9 GLL5        0.0000 
     60 CA         51.6070    7.0020   15.0525 C.3       3 GLC5        0.0000 
     61 O          51.5820    7.3675   20.2995 O.2       1 ALC1        0.0000 
     62 O          51.2010    7.0990   18.6490 O.2       7 ALL1        0.0000 
     63 O          51.9630    7.6360   21.9500 O.2       4 ALP1        0.0000 
     64 O          50.9665    8.2180   17.8345 O.2       1 ALC1        0.0000 
     65 O          50.7320    9.3370   17.0200 O.2       4 ALP1        0.0000 
     66 CA         49.3410    2.6985   18.3080 C.3       3 GLC5        0.0000 
     67 CA         49.3310    4.1470   16.9150 C.3       9 GLL5        0.0000 
     68 CA         49.3510    1.2500   19.7010 C.3       6 GLP5        0.0000 
     69 CA         47.5760    4.4795   17.1595 C.3       3 GLC5        0.0000 
     70 CA         48.6800    4.0760   15.5710 C.3       9 GLL5        0.0000 
     71 CA         46.4720    4.8830   18.7480 C.3       6 GLP5        0.0000 
     72 CA         41.1020   10.2398   10.4630 C.3       3 GLC5        0.0000 
     73 CA         43.5300   10.2270    9.8870 C.3       9 GLL5        0.0000 
     74 CA         39.8790    9.3050   11.5510 C.3       6 GLP5        0.0000 
     75 CA         46.4010   17.1135    9.1190 C.3       3 GLC5        0.0000 
     76 CA         48.1300   16.9530    9.7560 C.3       6 GLP5        0.0000 
     77 CA         44.8490   16.0280   10.4253 C.3       3 GLC5        0.0000 
     78 CA         46.1702    7.3362   14.0945 C.3       3 GLC5        0.0000 
     79 CA         46.1050    8.4870   12.9060 C.3       9 GLL5        0.0000 
     80 CA         48.9095    7.4520   17.5145 C.3       3 GLC5        0.0000 
     81 CA         47.9250    8.8640   18.3530 C.3       6 GLP5        0.0000 
     82 CA         48.7728    4.9533   18.3137 C.3       3 GLC5        0.0000 
     83 CA         47.9330    4.8130   19.8320 C.3       6 GLP5        0.0000 
     84 CA         47.0802    5.2925   15.1905 C.3       3 GLC5        0.0000 
@<TRIPOS>BOND
@<TRIPOS>SUBSTRUCTURE
     1 ALC1        7 GROUP        1 X    ALC  0     ROOT ALC X 1
     2 SEC2        1 GROUP        1 X    SEC  0     **** SEC X 2
     3 GLC5       14 GROUP        1 X    GLC  0     **** GLC X 6
     4 ALP1        9 GROUP        1 Y    ALP  0     ROOT ALP Y 8
     5 SEP2        3 GROUP        1 Y    SEP  0     **** SEP Y 9
     6 GLP5       16 GROUP        1 Y    GLP  0     **** GLP Y 13
     7 ALL1        8 GROUP        1 Z    ALL  0     ROOT ALL Z 15
     8 SEL2        2 GROUP        1 Z    SEL  0     **** SEL Z 16
     9 GLL5       15 GROUP        1 Z    GLL  0     **** GLL Z 20
@<TRIPOS>SET

