#    Name: 1ie3_NAD_3_ligand
#    Modification time : Tue Mar 25 06:57:15 2014

@<TRIPOS>MOLECULE
1ie3_NAD_3_ligand
   70    74     1     0     0
SMALL
NO_CHARGES


@<TRIPOS>ATOM
      1 PA         43.1920    7.6440    9.3940 P.3       1 NAD315      0.0000 
      2 O1A        43.7230    7.8740    8.0310 O.co2     1 NAD315      0.0000 
      3 O2A        42.0700    6.6710    9.4990 O.co2     1 NAD315      0.0000 
      4 O5B        42.7330    9.0340   10.0700 O.3       1 NAD315      0.0000 
      5 C5B        43.5300   10.2270    9.8870 C.3       1 NAD315      0.0000 
      6 C4B        42.6260   11.4470    9.9490 C.3       1 NAD315      0.0000 
      7 O4B        43.4790   12.6090    9.7580 O.3       1 NAD315      0.0000 
      8 C3B        41.5720   11.5120    8.8320 C.3       1 NAD315      0.0000 
      9 O3B        40.2630   11.5080    9.4160 O.3       1 NAD315      0.0000 
     10 C2B        41.9860   12.7790    8.0740 C.3       1 NAD315      0.0000 
     11 O2B        40.8690   13.4610    7.4530 O.3       1 NAD315      0.0000 
     12 C1B        42.6820   13.5750    9.1610 C.3       1 NAD315      0.0000 
     13 N9A        43.5520   14.6470    8.6730 N.pl3     1 NAD315      0.0000 
     14 C8A        44.4860   14.5760    7.6740 C.2       1 NAD315      0.0000 
     15 N7A        45.1130   15.7230    7.4470 N.2       1 NAD315      0.0000 
     16 C5A        44.5500   16.5920    8.3580 C.ar      1 NAD315      0.0000 
     17 C6A        44.7940   17.9560    8.6060 C.ar      1 NAD315      0.0000 
     18 N6A        45.6670   18.7160    7.9690 N.pl3     1 NAD315      0.0000 
     19 N1A        44.0570   18.5640    9.6010 N.ar      1 NAD315      0.0000 
     20 C2A        43.1400   17.7850   10.2730 C.ar      1 NAD315      0.0000 
     21 N3A        42.8330   16.5120   10.1230 N.ar      1 NAD315      0.0000 
     22 C4A        43.5840   15.9560    9.1310 C.ar      1 NAD315      0.0000 
     23 O3         44.3540    7.2070   10.2960 O.3       1 NAD315      0.0000 
     24 PN         44.4440    6.8150   11.8770 P.3       1 NAD315      0.0000 
     25 O1N        44.3390    5.3520   11.9410 O.co2     1 NAD315      0.0000 
     26 O2N        43.3490    7.5410   12.5760 O.co2     1 NAD315      0.0000 
     27 O5D        45.9240    7.3390   12.0770 O.3       1 NAD315      0.0000 
     28 C5D        46.1050    8.4870   12.9060 C.3       1 NAD315      0.0000 
     29 C4D        47.5680    8.8260   12.9640 C.3       1 NAD315      0.0000 
     30 O4D        48.0680    8.2660   14.2100 O.3       1 NAD315      0.0000 
     31 C3D        48.4700    8.2570   11.8690 C.3       1 NAD315      0.0000 
     32 O3D        49.4810    9.2110   11.5250 O.3       1 NAD315      0.0000 
     33 C2D        49.0620    7.0140   12.5310 C.3       1 NAD315      0.0000 
     34 O2D        50.3490    6.7110   11.9540 O.3       1 NAD315      0.0000 
     35 C1D        49.1760    7.4510   13.9630 C.3       1 NAD315      0.0000 
     36 N1N        49.2100    6.3560   14.9420 N.pl3     1 NAD315      0.0000 
     37 C2N        49.8220    6.5750   16.1670 C.ar      1 NAD315      0.0000 
     38 C3N        49.9660    5.5050   17.1850 C.ar      1 NAD315      0.0000 
     39 C7N        50.6920    5.8700   18.4220 C.2       1 NAD315      0.0000 
     40 O7N        50.8270    4.9840   19.2790 O.2       1 NAD315      0.0000 
     41 N7N        51.2010    7.0990   18.6490 N.am      1 NAD315      0.0000 
     42 C4N        49.3310    4.1470   16.9150 C.ar      1 NAD315      0.0000 
     43 C5N        48.6800    4.0760   15.5710 C.ar      1 NAD315      0.0000 
     44 C6N        48.6330    5.0620   14.6830 C.ar      1 NAD315      0.0000 
     45 H          44.0337   10.2222    8.9176 H         1 NAD315      0.0000 
     46 H          44.2875   10.3212   10.6685 H         1 NAD315      0.0000 
     47 H          42.1443   11.5009   10.8938 H         1 NAD315      0.0000 
     48 H          41.7614   10.6673    8.1957 H         1 NAD315      0.0000 
     49 H          42.7420   12.4773    7.3623 H         1 NAD315      0.0000 
     50 H          41.9469   13.9357    9.8393 H         1 NAD315      0.0000 
     51 H          44.6628   13.7270    7.1746 H         1 NAD315      0.0000 
     52 H          46.2150   18.2624    7.2662 H         1 NAD315      0.0000 
     53 H          45.7005   19.6759    8.2475 H         1 NAD315      0.0000 
     54 H          42.5813   18.3369   11.0627 H         1 NAD315      0.0000 
     55 H          45.7512    8.3042   13.9271 H         1 NAD315      0.0000 
     56 H          45.5637    9.3551   12.5127 H         1 NAD315      0.0000 
     57 H          47.6967    9.8981   13.0010 H         1 NAD315      0.0000 
     58 H          47.8633    7.9571   11.0630 H         1 NAD315      0.0000 
     59 H          48.3617    6.2349   12.4546 H         1 NAD315      0.0000 
     60 H          50.0917    8.0473   14.0529 H         1 NAD315      0.0000 
     61 H          50.2035    7.4997   16.4179 H         1 NAD315      0.0000 
     62 H          51.0752    7.7693   17.9177 H         1 NAD315      0.0000 
     63 H          51.6587    7.2302   19.5284 H         1 NAD315      0.0000 
     64 H          49.3536    3.4457   17.5301 H         1 NAD315      0.0000 
     65 H          48.2361    3.1303   15.3706 H         1 NAD315      0.0000 
     66 H          48.1723    4.9427   13.7504 H         1 NAD315      0.0000 
     67 H          40.1586   12.4154    9.8231 H         1 NAD315      0.0000 
     68 H          40.5575   14.1219    8.1357 H         1 NAD315      0.0000 
     69 H          49.7036    9.6730   12.3835 H         1 NAD315      0.0000 
     70 H          50.5616    7.4945   11.3701 H         1 NAD315      0.0000 
@<TRIPOS>BOND
     1    2    1 ar   
     2    3    1 ar   
     3    4    1 1    
     4   23    1 1    
     5    5    4 1    
     6    6    5 1    
     7   45    5 1    
     8   46    5 1    
     9    7    6 1    
    10    8    6 1    
    11   47    6 1    
    12   12    7 1    
    13    9    8 1    
    14   10    8 1    
    15   48    8 1    
    16   67    9 1    
    17   11   10 1    
    18   12   10 1    
    19   49   10 1    
    20   68   11 1    
    21   13   12 1    
    22   50   12 1    
    23   14   13 1    
    24   22   13 1    
    25   15   14 2    
    26   51   14 1    
    27   16   15 1    
    28   17   16 ar   
    29   22   16 ar   
    30   18   17 1    
    31   19   17 ar   
    32   52   18 1    
    33   53   18 1    
    34   20   19 ar   
    35   21   20 ar   
    36   54   20 1    
    37   22   21 ar   
    38   24   23 1    
    39   25   24 ar   
    40   26   24 ar   
    41   27   24 1    
    42   28   27 1    
    43   29   28 1    
    44   55   28 1    
    45   56   28 1    
    46   30   29 1    
    47   31   29 1    
    48   57   29 1    
    49   35   30 1    
    50   32   31 1    
    51   33   31 1    
    52   58   31 1    
    53   69   32 1    
    54   34   33 1    
    55   35   33 1    
    56   59   33 1    
    57   70   34 1    
    58   36   35 1    
    59   60   35 1    
    60   37   36 ar   
    61   44   36 ar   
    62   38   37 ar   
    63   61   37 1    
    64   39   38 1    
    65   42   38 ar   
    66   40   39 2    
    67   41   39 am   
    68   62   41 1    
    69   63   41 1    
    70   43   42 ar   
    71   64   42 1    
    72   44   43 ar   
    73   65   43 1    
    74   66   44 1    
@<TRIPOS>SUBSTRUCTURE
     1 NAD315      1 GROUP   
@<TRIPOS>SET

