#    Name: 2ntr_L00_1_INTS_M
#    Modification time : Tue Mar 25 21:34:42 2014

@<TRIPOS>MOLECULE
2ntr_L00_1_INTS_M
   94     0    12     0     0
SMALL
NO_CHARGES


@<TRIPOS>ATOM
      1 CA         26.9915   47.2175    2.5960 C.3       4 GLC5        0.0000 
      2 CA         26.1500   47.1370    0.5660 C.3      12 GLL5        0.0000 
      3 CA         27.8330   47.2980    4.6260 C.3       8 GLP5        0.0000 
      4 N          25.6445   45.5980    3.7135 N.am      2 SEC2        0.0000 
      5 N          26.0740   45.1800    2.3030 N.am     10 SEL2        0.0000 
      6 N          25.2150   46.0160    5.1240 N.am      6 SEP2        0.0000 
      7 N          22.6360   45.6340    0.8475 N.am      2 SEC2        0.0000 
      8 N          24.1760   45.4040    0.7490 N.am     10 SEL2        0.0000 
      9 N          21.0960   45.8640    0.9460 N.am      6 SEP2        0.0000 
     10 OD1        32.0250   38.5850    4.6665 O.co2     3 ASC3        0.0000 
     11 OD1        31.0880   38.6860    3.7980 O.co2    11 ASL3        0.0000 
     12 OD1        32.9620   38.4840    5.5350 O.co2     7 ASP3        0.0000 
     13 OD1        32.0675   37.5010    4.5285 O.co2     3 ASC3        0.0000 
     14 OD1        33.0470   36.3160    5.2590 O.co2     7 ASP3        0.0000 
     15 OD1        30.3895   38.4370    5.3060 O.co2     3 ASC3        0.0000 
     16 OD1        29.6910   38.1880    6.8140 O.co2     7 ASP3        0.0000 
     17 OD1        29.7735   38.4515    4.4030 O.co2     3 ASC3        0.0000 
     18 OD1        28.4590   38.2170    5.0080 O.co2     7 ASP3        0.0000 
     19 O          32.0250   38.5850    4.6665 O.2       1 ALC1        0.0000 
     20 O          31.0880   38.6860    3.7980 O.2       9 ALL1        0.0000 
     21 O          32.9620   38.4840    5.5350 O.2       5 ALP1        0.0000 
     22 O          32.0675   37.5010    4.5285 O.2       1 ALC1        0.0000 
     23 O          33.0470   36.3160    5.2590 O.2       5 ALP1        0.0000 
     24 O          29.7735   38.4515    4.4030 O.2       1 ALC1        0.0000 
     25 O          28.4590   38.2170    5.0080 O.2       5 ALP1        0.0000 
     26 O          31.0955   40.1685    4.0670 O.2       1 ALC1        0.0000 
     27 O          31.1030   41.6510    4.3360 O.2       5 ALP1        0.0000 
     28 CA         30.2075   35.7880    4.4470 C.3       4 GLC5        0.0000 
     29 CA         30.7270   36.6030    2.5540 C.3      12 GLL5        0.0000 
     30 CA         29.6880   34.9730    6.3400 C.3       8 GLP5        0.0000 
     31 CA         31.9570   35.0140    3.1840 C.3       4 GLC5        0.0000 
     32 CA         33.1870   33.4250    3.8140 C.3       8 GLP5        0.0000 
     33 CA         32.7440   37.1375    0.3325 C.3       4 GLC5        0.0000 
     34 CA         32.6980   38.1400    1.8910 C.3      12 GLL5        0.0000 
     35 CA         32.7900   36.1350   -1.2260 C.3       8 GLP5        0.0000 
     36 CA         34.7000   44.1940    0.5720 C.3       4 GLC5        0.0000 
     37 CA         34.1160   42.0420    0.5720 C.3      12 GLL5        0.0000 
     38 CA         35.2840   46.3460    0.5720 C.3       8 GLP5        0.0000 
     39 CA         32.2115   42.0500   -1.9035 C.3       4 GLC5        0.0000 
     40 CA         33.5260   41.1360   -0.4030 C.3      12 GLL5        0.0000 
     41 CA         30.8970   42.9640   -3.4040 C.3       8 GLP5        0.0000 
     42 CA         32.3080   38.2555   -0.9170 C.3       4 GLC5        0.0000 
     43 CA         33.0830   39.8310    0.0390 C.3      12 GLL5        0.0000 
     44 CA         31.5330   36.6800   -1.8730 C.3       8 GLP5        0.0000 
     45 N          29.2555   39.5015   -1.6995 N.am      2 SEC2        0.0000 
     46 N          29.1270   39.5470   -0.0040 N.am     10 SEL2        0.0000 
     47 N          29.3840   39.4560   -3.3950 N.am      6 SEP2        0.0000 
     48 CA         33.6895   45.6495    1.2245 C.3       4 GLC5        0.0000 
     49 CA         32.0950   44.9530    1.8770 C.3      12 GLL5        0.0000 
     50 CA         29.0830   46.9890    3.0385 C.3       4 GLC5        0.0000 
     51 CA         30.3330   46.6800    1.4510 C.3      12 GLL5        0.0000 
     52 CA         26.0920   40.3465   -1.4575 C.3       4 GLC5        0.0000 
     53 CA         26.5120   41.4490   -0.1030 C.3      12 GLL5        0.0000 
     54 CA         25.6720   39.2440   -2.8120 C.3       8 GLP5        0.0000 
     55 CA         26.3080   41.8835    1.9570 C.3       4 GLC5        0.0000 
     56 CA         26.1040   42.3180    4.0170 C.3       8 GLP5        0.0000 
     57 CA         24.8520   41.7105    0.8685 C.3       4 GLC5        0.0000 
     58 CA         23.1920   41.9720    1.8400 C.3       8 GLP5        0.0000 
     59 N          31.6385   45.9985   -1.2115 N.am      2 SEC2        0.0000 
     60 N          31.6290   47.3020   -0.5360 N.am     10 SEL2        0.0000 
     61 N          31.6480   44.6950   -1.8870 N.am      6 SEP2        0.0000 
     62 CA         33.8370   47.3845    0.2530 C.3       4 GLC5        0.0000 
     63 CA         32.3900   48.4230   -0.0660 C.3      12 GLL5        0.0000 
     64 CA         30.2925   43.4765    4.1150 C.3       4 GLC5        0.0000 
     65 CA         32.1140   44.5010    3.2990 C.3      12 GLL5        0.0000 
     66 CA         28.4710   42.4520    4.9310 C.3       8 GLP5        0.0000 
     67 CA         34.3810   45.5415    2.2420 C.3       4 GLC5        0.0000 
     68 CA         33.4780   44.7370    3.9120 C.3      12 GLL5        0.0000 
     69 CA         31.6075   42.9690    6.1140 C.3       4 GLC5        0.0000 
     70 CA         31.6100   44.9590    5.6460 C.3      12 GLL5        0.0000 
     71 CA         31.6050   40.9790    6.5820 C.3       8 GLP5        0.0000 
     72 CA         30.0405   43.7055    5.2885 C.3       4 GLC5        0.0000 
     73 CA         29.5990   45.5285    5.6115 C.3       4 GLC5        0.0000 
     74 CA         27.5880   46.0980    5.5770 C.3       8 GLP5        0.0000 
     75 CA         28.9871   42.6301    2.8971 C.3       4 GLC5        0.0000 
     76 CA         29.0720   42.0120    0.6600 C.3      12 GLL5        0.0000 
     77 CA         29.3444   42.1459   -1.2134 C.3       4 GLC5        0.0000 
     78 CA         30.0870   42.9050    1.0670 C.3      12 GLL5        0.0000 
     79 CA         30.0010   41.8070   -2.9950 C.3       8 GLP5        0.0000 
     80 CA         26.8840   42.7623    2.1460 C.3       4 GLC5        0.0000 
     81 CA         27.7960   42.5110    0.2730 C.3      12 GLL5        0.0000 
     82 CA         31.8633   36.2148    1.1140 C.3       4 GLC5        0.0000 
     83 CA         31.2620   38.0560    2.4780 C.3      12 GLL5        0.0000 
     84 CA         32.7320   35.1000   -0.2880 C.3       8 GLP5        0.0000 
     85 CA         35.0205   41.0395    3.6033 C.3       4 GLC5        0.0000 
     86 CA         33.8110   40.3980    2.4330 C.3      12 GLL5        0.0000 
     87 CA         36.0040   41.0250    4.9990 C.3       8 GLP5        0.0000 
     88 CA         34.8115   38.4009    2.7516 C.3       4 GLC5        0.0000 
     89 CA         36.2360   37.1970    3.4510 C.3       8 GLP5        0.0000 
     90 CA         33.7495   46.9453    4.3558 C.3       4 GLC5        0.0000 
     91 CA         34.6210   48.7800    4.5330 C.3       8 GLP5        0.0000 
     92 CA         33.6175   45.5064    5.9896 C.3       4 GLC5        0.0000 
     93 CA         32.2780   45.4840    4.4450 C.3      12 GLL5        0.0000 
     94 CA         34.9910   45.9780    7.0670 C.3       8 GLP5        0.0000 
@<TRIPOS>BOND
@<TRIPOS>SUBSTRUCTURE
     1 ALC1       19 GROUP        1 X    ALC  0     ROOT ALC X 1
     2 SEC2        4 GROUP        1 X    SEC  0     **** SEC X 2
     3 ASC3       10 GROUP        1 X    ASC  0     **** ASC X 3
     4 GLC5        1 GROUP        1 X    GLC  0     **** GLC X 6
     5 ALP1       21 GROUP        1 Y    ALP  0     ROOT ALP Y 8
     6 SEP2        6 GROUP        1 Y    SEP  0     **** SEP Y 9
     7 ASP3       12 GROUP        1 Y    ASP  0     **** ASP Y 10
     8 GLP5        3 GROUP        1 Y    GLP  0     **** GLP Y 13
     9 ALL1       20 GROUP        1 Z    ALL  0     ROOT ALL Z 15
    10 SEL2        5 GROUP        1 Z    SEL  0     **** SEL Z 16
    11 ASL3       11 GROUP        1 Z    ASL  0     **** ASL Z 17
    12 GLL5        2 GROUP        1 Z    GLL  0     **** GLL Z 20
@<TRIPOS>SET

