#    Name: 2ntr_L00_1_ligand
#    Modification time : Tue Mar 25 21:34:42 2014

@<TRIPOS>MOLECULE
2ntr_L00_1_ligand
   74    77     1     0     0
SMALL
NO_CHARGES


@<TRIPOS>ATOM
      1 N5         30.7090   45.2600    1.4470 N.pl3     1 L00401      0.0000 
      2 C9         29.7820   44.3040    1.0660 C.ar      1 L00401      0.0000 
      3 C10        30.0870   42.9050    1.0670 C.ar      1 L00401      0.0000 
      4 C11        29.0720   42.0120    0.6600 C.ar      1 L00401      0.0000 
      5 C12        27.7960   42.5110    0.2730 C.ar      1 L00401      0.0000 
      6 C13        27.5320   43.9020    0.2770 C.ar      1 L00401      0.0000 
      7 N1         28.5320   44.7230    0.6670 N.ar      1 L00401      0.0000 
      8 N2         26.3120   44.4520   -0.0570 N.pl3     1 L00401      0.0000 
      9 S1         25.5870   45.4750    0.9890 S.o2      1 L00401      0.0000 
     10 C15        26.1500   47.1370    0.5660 C.3       1 L00401      0.0000 
     11 C16        25.8440   44.4080   -1.4530 C.3       1 L00401      0.0000 
     12 O2         26.0740   45.1800    2.3030 O.2       1 L00401      0.0000 
     13 O3         24.1760   45.4040    0.7490 O.2       1 L00401      0.0000 
     14 C20        31.2620   38.0560    2.4780 C.3       1 L00401      0.0000 
     15 N6         31.0880   38.6860    3.7980 N.4       1 L00401      0.0000 
     16 C21        30.7270   36.6030    2.5540 C.3       1 L00401      0.0000 
     17 C22        32.6980   38.1400    1.8910 C.3       1 L00401      0.0000 
     18 C23        34.1160   42.0420    0.5720 C.ar      1 L00401      0.0000 
     19 C24        33.5260   41.1360   -0.4030 C.ar      1 L00401      0.0000 
     20 C25        33.0830   39.8310    0.0390 C.ar      1 L00401      0.0000 
     21 C26        33.2280   39.4830    1.4520 C.ar      1 L00401      0.0000 
     22 C27        33.8110   40.3980    2.4330 C.ar      1 L00401      0.0000 
     23 C28        34.2630   41.7100    1.9820 C.ar      1 L00401      0.0000 
     24 N3         29.6590   38.4860    0.4600 N.2       1 L00401      0.0000 
     25 N4         29.1270   39.5470   -0.0040 N.2       1 L00401      0.0000 
     26 C29        29.4520   40.6070    0.7810 C.2       1 L00401      0.0000 
     27 O4         30.2390   40.1200    1.7200 O.3       1 L00401      0.0000 
     28 C30        30.3670   38.8200    1.5430 C.2       1 L00401      0.0000 
     29 C1         32.0950   44.9530    1.8770 C.3       1 L00401      0.0000 
     30 C2         30.3330   46.6800    1.4510 C.3       1 L00401      0.0000 
     31 CL         26.5120   41.4490   -0.1030 Cl        1 L00401      0.0000 
     32 C3         30.3280   47.2920    0.0510 C.3       1 L00401      0.0000 
     33 O1         31.6290   47.3020   -0.5360 O.3       1 L00401      0.0000 
     34 C4         32.3900   48.4230   -0.0660 C.3       1 L00401      0.0000 
     35 C5         32.2780   45.4840    4.4450 C.3       1 L00401      0.0000 
     36 C6         32.1140   44.5010    3.2990 C.3       1 L00401      0.0000 
     37 C7         33.4780   44.7370    3.9120 C.3       1 L00401      0.0000 
     38 C8         31.6100   44.9590    5.6460 C.3       1 L00401      0.0000 
     39 H          30.9917   42.5806    1.3483 H         1 L00401      0.0000 
     40 H          32.7497   37.4237    1.0261 H         1 L00401      0.0000 
     41 H          33.3982   37.6992    2.6520 H         1 L00401      0.0000 
     42 H          34.4456   42.9629    0.2486 H         1 L00401      0.0000 
     43 H          33.4305   41.4133   -1.3576 H         1 L00401      0.0000 
     44 H          32.6863   39.1779   -0.6012 H         1 L00401      0.0000 
     45 H          33.8968   40.1300    3.3869 H         1 L00401      0.0000 
     46 H          34.6601   42.3582    2.6209 H         1 L00401      0.0000 
     47 H          32.7232   45.8451    1.7695 H         1 L00401      0.0000 
     48 H          32.5162   44.1672    1.2389 H         1 L00401      0.0000 
     49 H          31.0308   47.2619    2.0771 H         1 L00401      0.0000 
     50 H          29.3276   46.8114    1.8863 H         1 L00401      0.0000 
     51 H          29.9139   48.3142    0.1365 H         1 L00401      0.0000 
     52 H          29.6111   46.7140   -0.5619 H         1 L00401      0.0000 
     53 H          32.2599   46.3402    4.0731 H         1 L00401      0.0000 
     54 H          31.8076   43.6741    3.6580 H         1 L00401      0.0000 
     55 H          33.6620   44.0169    4.5016 H         1 L00401      0.0000 
     56 H          33.9583   45.3218    3.3399 H         1 L00401      0.0000 
     57 H          27.1435   47.2228    0.6406 H         1 L00401      0.0000 
     58 H          25.9039   47.3853   -0.3709 H         1 L00401      0.0000 
     59 H          25.7501   47.8288    1.1672 H         1 L00401      0.0000 
     60 H          26.4715   44.8826   -2.0702 H         1 L00401      0.0000 
     61 H          25.7587   43.4692   -1.7867 H         1 L00401      0.0000 
     62 H          24.9477   44.8389   -1.5580 H         1 L00401      0.0000 
     63 H          30.1274   38.7089    4.0749 H         1 L00401      0.0000 
     64 H          31.5874   38.1956    4.5123 H         1 L00401      0.0000 
     65 H          31.4177   39.6300    3.8054 H         1 L00401      0.0000 
     66 H          30.8229   36.1258    1.6805 H         1 L00401      0.0000 
     67 H          31.2161   36.0625    3.2385 H         1 L00401      0.0000 
     68 H          29.7575   36.5765    2.7976 H         1 L00401      0.0000 
     69 H          33.3059   48.4444   -0.4668 H         1 L00401      0.0000 
     70 H          31.9503   49.2919   -0.2932 H         1 L00401      0.0000 
     71 H          32.5051   48.4036    0.9272 H         1 L00401      0.0000 
     72 H          31.9930   44.0799    5.9297 H         1 L00401      0.0000 
     73 H          31.6994   45.5821    6.4230 H         1 L00401      0.0000 
     74 H          30.6317   44.8174    5.4949 H         1 L00401      0.0000 
@<TRIPOS>BOND
     1    2    1 1    
     2   29    1 1    
     3   30    1 1    
     4    3    2 ar   
     5    7    2 ar   
     6    4    3 ar   
     7   39    3 1    
     8    5    4 ar   
     9   26    4 1    
    10    6    5 ar   
    11   31    5 1    
    12    7    6 ar   
    13    8    6 1    
    14    9    8 1    
    15   11    8 1    
    16   10    9 1    
    17   12    9 2    
    18   13    9 2    
    19   57   10 1    
    20   58   10 1    
    21   59   10 1    
    22   60   11 1    
    23   61   11 1    
    24   62   11 1    
    25   15   14 1    
    26   16   14 1    
    27   17   14 1    
    28   28   14 1    
    29   63   15 1    
    30   64   15 1    
    31   65   15 1    
    32   66   16 1    
    33   67   16 1    
    34   68   16 1    
    35   21   17 1    
    36   40   17 1    
    37   41   17 1    
    38   19   18 ar   
    39   23   18 ar   
    40   42   18 1    
    41   20   19 ar   
    42   43   19 1    
    43   21   20 ar   
    44   44   20 1    
    45   22   21 ar   
    46   23   22 ar   
    47   45   22 1    
    48   46   23 1    
    49   25   24 1    
    50   28   24 2    
    51   26   25 2    
    52   27   26 1    
    53   28   27 1    
    54   36   29 1    
    55   47   29 1    
    56   48   29 1    
    57   32   30 1    
    58   49   30 1    
    59   50   30 1    
    60   33   32 1    
    61   51   32 1    
    62   52   32 1    
    63   34   33 1    
    64   69   34 1    
    65   70   34 1    
    66   71   34 1    
    67   36   35 1    
    68   37   35 1    
    69   38   35 1    
    70   53   35 1    
    71   37   36 1    
    72   54   36 1    
    73   55   37 1    
    74   56   37 1    
    75   72   38 1    
    76   73   38 1    
    77   74   38 1    
@<TRIPOS>SUBSTRUCTURE
     1 L00401      1 GROUP   
@<TRIPOS>SET

