#    Name: 2jkq_VG8_1_INTS_M
#    Modification time : Tue Mar 25 21:02:49 2014

@<TRIPOS>MOLECULE
2jkq_VG8_1_INTS_M
   92     0    12     0     0
SMALL
NO_CHARGES


@<TRIPOS>ATOM
      1 OD1        14.0480   -2.5010   27.4885 O.co2     3 ASC3        0.0000 
      2 OD1        15.8500   -2.3730   27.4100 O.co2    11 ASL3        0.0000 
      3 OD1        12.2460   -2.6290   27.5670 O.co2     7 ASP3        0.0000 
      4 CA         12.5655   -1.9265   25.7750 C.3       4 GLC5        0.0000 
      5 CA         14.5800   -1.0050   25.6590 C.3      12 GLL5        0.0000 
      6 CA         10.5510   -2.8480   25.8910 C.3       8 GLP5        0.0000 
      7 CA         11.7140   -1.5380   26.7750 C.3       4 GLC5        0.0000 
      8 CA         12.8770   -0.2280   27.6590 C.3      12 GLL5        0.0000 
      9 CA         12.1735    2.1930   29.1725 C.3       4 GLC5        0.0000 
     10 CA         11.0940    1.9120   27.3500 C.3      12 GLL5        0.0000 
     11 CA         13.2530    2.4740   30.9950 C.3       8 GLP5        0.0000 
     12 CA          8.6920    3.2880   28.8660 C.3       4 GLC5        0.0000 
     13 CA         10.0730    2.8440   27.2590 C.3      12 GLL5        0.0000 
     14 CA          7.3110    3.7320   30.4730 C.3       8 GLP5        0.0000 
     15 CA          9.8780    4.7255   28.4540 C.3       4 GLC5        0.0000 
     16 CA          9.6830    6.6070   29.6490 C.3       8 GLP5        0.0000 
     17 CA         12.8530    4.2815   23.7955 C.3       4 GLC5        0.0000 
     18 CA         12.3090    2.1150   23.6760 C.3      12 GLL5        0.0000 
     19 CA         13.3970    6.4480   23.9150 C.3       8 GLP5        0.0000 
     20 CA         11.9910    1.8065   20.4120 C.3       4 GLC5        0.0000 
     21 CA         11.7750    3.3480   21.4510 C.3      12 GLL5        0.0000 
     22 CA         12.2070    0.2650   19.3730 C.3       8 GLP5        0.0000 
     23 CA          9.9575    3.6945   20.8795 C.3       4 GLC5        0.0000 
     24 CA          8.1400    4.0410   20.3080 C.3       8 GLP5        0.0000 
     25 CA         12.5860    4.8980   22.6830 C.3       4 GLC5        0.0000 
     26 CA         13.1360    4.0770   20.1710 C.3       4 GLC5        0.0000 
     27 CA         14.4970    4.8060   18.8910 C.3       8 GLP5        0.0000 
     28 CA          8.3255    2.8735   24.6305 C.3       4 GLC5        0.0000 
     29 CA          9.8100    3.4890   26.0560 C.3      12 GLL5        0.0000 
     30 CA          6.8410    2.2580   23.2050 C.3       8 GLP5        0.0000 
     31 CA          7.4110    3.8635   28.2680 C.3       4 GLC5        0.0000 
     32 CA          7.5110    3.9950   26.0630 C.3      12 GLL5        0.0000 
     33 CA          6.0860    6.5270   26.4690 C.3       4 GLC5        0.0000 
     34 CA          6.8220    6.2570   24.6740 C.3      12 GLL5        0.0000 
     35 CA          5.3500    6.7970   28.2640 C.3       8 GLP5        0.0000 
     36 CA          5.3560    6.3070   23.3680 C.3       4 GLC5        0.0000 
     37 CA          3.8900    6.3570   22.0620 C.3       8 GLP5        0.0000 
     38 CA          5.8145    7.8520   24.9150 C.3       4 GLC5        0.0000 
     39 CA          4.8070    9.4470   25.1560 C.3       8 GLP5        0.0000 
     40 CA          6.8315    4.2575   23.9395 C.3       4 GLC5        0.0000 
     41 CA          8.1965    7.2315   23.4500 C.3       4 GLC5        0.0000 
     42 CA          9.5710    8.2060   22.2260 C.3       8 GLP5        0.0000 
     43 CA          4.5380    5.3145   23.8095 C.3       4 GLC5        0.0000 
     44 CA          5.1860    4.2720   25.5570 C.3      12 GLL5        0.0000 
     45 CA          3.3730    4.3330   26.2810 C.3       4 GLC5        0.0000 
     46 CA          1.5600    4.3940   27.0050 C.3       8 GLP5        0.0000 
     47 CA          3.9725    3.1490   24.2160 C.3       4 GLC5        0.0000 
     48 CA          2.7590    2.0260   22.8750 C.3       8 GLP5        0.0000 
     49 N           3.5855    2.7555   26.0245 N.am      2 SEC2        0.0000 
     50 N           4.9090    3.1280   26.1670 N.am     10 SEL2        0.0000 
     51 N           2.2620    2.3830   25.8820 N.am      6 SEP2        0.0000 
     52 CA          6.5985    3.0730   28.6015 C.3       4 GLC5        0.0000 
     53 CA          5.8860    2.4140   26.7300 C.3      12 GLL5        0.0000 
     54 CA          4.5485    2.9610   28.2245 C.3       4 GLC5        0.0000 
     55 CA          3.2110    3.5080   29.7190 C.3       8 GLP5        0.0000 
     56 CA          4.4295    1.6060   25.4600 C.3       4 GLC5        0.0000 
     57 CA          2.9730    0.7980   24.1900 C.3       8 GLP5        0.0000 
     58 CA          6.3635    2.3360   24.9675 C.3       4 GLC5        0.0000 
     59 O           4.4570    0.5100   27.1120 O.2       1 ALC1        0.0000 
     60 O           5.5760    1.2660   27.3240 O.2       9 ALL1        0.0000 
     61 O           3.3380   -0.2460   26.9000 O.2       5 ALP1        0.0000 
     62 CA          6.8715    2.1370   29.2640 C.3       4 GLC5        0.0000 
     63 CA          6.4320    0.5420   28.0550 C.3      12 GLL5        0.0000 
     64 CA          9.5685   -1.6775   27.1385 C.3       4 GLC5        0.0000 
     65 CA          8.5860   -0.5070   28.3860 C.3      12 GLL5        0.0000 
     66 CA          4.6155    1.7790   29.5040 C.3       4 GLC5        0.0000 
     67 CA          6.0200    0.0500   29.2890 C.3      12 GLL5        0.0000 
     68 CA          5.8720    0.4675   31.7055 C.3       4 GLC5        0.0000 
     69 CA          4.3780   -0.6870   30.6870 C.3      12 GLL5        0.0000 
     70 CA          7.3660    1.6220   32.7240 C.3       8 GLP5        0.0000 
     71 CA          3.7945    1.4105   30.2030 C.3       4 GLC5        0.0000 
     72 CA          2.6625   -0.8390   29.5195 C.3       4 GLC5        0.0000 
     73 CA          0.9470   -0.9910   28.3520 C.3       8 GLP5        0.0000 
     74 CA         13.4208    1.0463   29.4550 C.3       4 GLC5        0.0000 
     75 CA          9.8706    1.5080   23.8927 C.3       4 GLC5        0.0000 
     76 CA         10.6000    3.1930   24.9350 C.3      12 GLL5        0.0000 
     77 CA          8.4590    0.3290   23.1390 C.3       8 GLP5        0.0000 
     78 CA         10.9380    4.9067   25.4379 C.3       4 GLC5        0.0000 
     79 CA         11.6200    2.2470   25.0400 C.3      12 GLL5        0.0000 
     80 CA         11.4160    6.7090   25.3540 C.3       8 GLP5        0.0000 
     81 CA          5.7222    5.5596   26.9640 C.3       4 GLC5        0.0000 
     82 CA          6.4678    3.2901   24.4345 C.3       4 GLC5        0.0000 
     83 CA          6.4950    4.7500   25.4790 C.3      12 GLL5        0.0000 
     84 CA          6.4985   -1.3382   27.3227 C.3       4 GLC5        0.0000 
     85 CA          5.9230   -3.0720   26.8160 C.3       8 GLP5        0.0000 
     86 CA          8.4748    0.5958   30.4250 C.3       4 GLC5        0.0000 
     87 CA          8.5680    1.9430   31.8470 C.3       8 GLP5        0.0000 
     88 CA          7.1523   -1.9118   27.9095 C.3       4 GLC5        0.0000 
     89 CA          8.1770   -0.9960   29.6200 C.3      12 GLL5        0.0000 
     90 CA          6.9110    0.6455   31.2015 C.3       4 GLC5        0.0000 
     91 CA          6.8920   -0.7120   30.0690 C.3      12 GLL5        0.0000 
     92 CA          6.1895   -1.7015   28.2475 C.3       4 GLC5        0.0000 
@<TRIPOS>BOND
@<TRIPOS>SUBSTRUCTURE
     1 ALC1       59 GROUP        1 X    ALC  0     ROOT ALC X 1
     2 SEC2       49 GROUP        1 X    SEC  0     **** SEC X 2
     3 ASC3        1 GROUP        1 X    ASC  0     **** ASC X 3
     4 GLC5        4 GROUP        1 X    GLC  0     **** GLC X 6
     5 ALP1       61 GROUP        1 Y    ALP  0     ROOT ALP Y 8
     6 SEP2       51 GROUP        1 Y    SEP  0     **** SEP Y 9
     7 ASP3        3 GROUP        1 Y    ASP  0     **** ASP Y 10
     8 GLP5        6 GROUP        1 Y    GLP  0     **** GLP Y 13
     9 ALL1       60 GROUP        1 Z    ALL  0     ROOT ALL Z 15
    10 SEL2       50 GROUP        1 Z    SEL  0     **** SEL Z 16
    11 ASL3        2 GROUP        1 Z    ASL  0     **** ASL Z 17
    12 GLL5        5 GROUP        1 Z    GLL  0     **** GLL Z 20
@<TRIPOS>SET

