#    Name: 2jkq_VG8_1_ligand
#    Modification time : Tue Mar 25 21:02:49 2014

@<TRIPOS>MOLECULE
2jkq_VG8_1_ligand
   77    82     1     0     0
SMALL
NO_CHARGES


@<TRIPOS>ATOM
      1 CBJ        15.2250   -3.5540   26.7410 C.3       1 VG81687     0.0000 
      2 CBL        16.0350   -4.8540   27.1440 C.3       1 VG81687     0.0000 
      3 CBN        16.9640   -4.5870   28.3480 C.3       1 VG81687     0.0000 
      4 CBM        17.9690   -3.4470   28.0440 C.3       1 VG81687     0.0000 
      5 CBK        17.3060   -2.3690   27.1230 C.3       1 VG81687     0.0000 
      6 NBI        15.8500   -2.3730   27.4100 N.4       1 VG81687     0.0000 
      7 CBH        15.2620   -1.0410   27.0540 C.3       1 VG81687     0.0000 
      8 CBF        14.5800   -1.0050   25.6590 C.3       1 VG81687     0.0000 
      9 CBD        13.9790    0.3890   25.4110 C.3       1 VG81687     0.0000 
     10 CBG        14.3000   -0.5350   28.1710 C.3       1 VG81687     0.0000 
     11 CBE        12.8770   -0.2280   27.6590 C.3       1 VG81687     0.0000 
     12 NBC        12.9030    0.6190   26.4170 N.3       1 VG81687     0.0000 
     13 CBB        11.8850    1.5970   26.2480 C.ar      1 VG81687     0.0000 
     14 CAZ        11.0940    1.9120   27.3500 C.ar      1 VG81687     0.0000 
     15 CAO        10.0730    2.8440   27.2590 C.ar      1 VG81687     0.0000 
     16 CAY        11.6200    2.2470   25.0400 C.ar      1 VG81687     0.0000 
     17 CAX        12.3090    2.1150   23.6760 C.3       1 VG81687     0.0000 
     18 NAU        11.5450    3.0710   22.8750 N.am      1 VG81687     0.0000 
     19 CAT        11.7750    3.3480   21.4510 C.3       1 VG81687     0.0000 
     20 CAM        10.6050    3.6520   23.6130 C.2       1 VG81687     0.0000 
     21 OAI         9.8360    4.5000   23.1600 O.2       1 VG81687     0.0000 
     22 CAN        10.6000    3.1930   24.9350 C.ar      1 VG81687     0.0000 
     23 CAJ         9.8100    3.4890   26.0560 C.ar      1 VG81687     0.0000 
     24 NAE         8.8040    4.3870   26.0220 N.pl3     1 VG81687     0.0000 
     25 C4          7.5110    3.9950   26.0630 C.ar      1 VG81687     0.0000 
     26 N3          7.1600    2.8460   26.6750 N.ar      1 VG81687     0.0000 
     27 C5          6.4950    4.7500   25.4790 C.ar      1 VG81687     0.0000 
     28 CL5         6.8220    6.2570   24.6740 Cl        1 VG81687     0.0000 
     29 C6          5.1860    4.2720   25.5570 C.ar      1 VG81687     0.0000 
     30 N1          4.9090    3.1280   26.1670 N.ar      1 VG81687     0.0000 
     31 C2          5.8860    2.4140   26.7300 C.ar      1 VG81687     0.0000 
     32 NAH         5.5760    1.2660   27.3240 N.pl3     1 VG81687     0.0000 
     33 CAL         6.4320    0.5420   28.0550 C.ar      1 VG81687     0.0000 
     34 CAP         7.7160    0.2490   27.6040 C.ar      1 VG81687     0.0000 
     35 CAV         8.5860   -0.5070   28.3860 C.ar      1 VG81687     0.0000 
     36 CBA         8.1770   -0.9960   29.6200 C.ar      1 VG81687     0.0000 
     37 CAW         6.8920   -0.7120   30.0690 C.ar      1 VG81687     0.0000 
     38 CAQ         6.0200    0.0500   29.2890 C.ar      1 VG81687     0.0000 
     39 OAR         4.7630    0.3210   29.7180 O.3       1 VG81687     0.0000 
     40 CAS         4.3780   -0.6870   30.6870 C.3       1 VG81687     0.0000 
     41 H          14.2064   -3.6916   27.0663 H         1 VG81687     0.0000 
     42 H          15.2702   -3.4623   25.6678 H         1 VG81687     0.0000 
     43 H          16.6243   -5.1626   26.2891 H         1 VG81687     0.0000 
     44 H          15.3228   -5.6301   27.3970 H         1 VG81687     0.0000 
     45 H          17.5178   -5.4931   28.5794 H         1 VG81687     0.0000 
     46 H          16.3618   -4.3064   29.2082 H         1 VG81687     0.0000 
     47 H          18.8309   -3.8549   27.5366 H         1 VG81687     0.0000 
     48 H          18.2683   -2.9769   28.9692 H         1 VG81687     0.0000 
     49 H          17.5023   -2.6405   26.1005 H         1 VG81687     0.0000 
     50 H          17.7468   -1.4159   27.3578 H         1 VG81687     0.0000 
     51 H          15.7438   -2.5092   28.5080 H         1 VG81687     0.0000 
     52 H          16.0946   -0.2971   27.0172 H         1 VG81687     0.0000 
     53 H          13.7948   -1.7463   25.6338 H         1 VG81687     0.0000 
     54 H          15.3199   -1.2190   24.9018 H         1 VG81687     0.0000 
     55 H          13.5745    0.4180   24.4088 H         1 VG81687     0.0000 
     56 H          14.7619    1.1270   25.5167 H         1 VG81687     0.0000 
     57 H          14.7259    0.3717   28.6122 H         1 VG81687     0.0000 
     58 H          14.2429   -1.2988   28.9530 H         1 VG81687     0.0000 
     59 H          12.3283    0.2880   28.4520 H         1 VG81687     0.0000 
     60 H          12.3714   -1.1760   27.4546 H         1 VG81687     0.0000 
     61 H          11.2752    1.4380   28.2550 H         1 VG81687     0.0000 
     62 H           9.5011    3.0630   28.0910 H         1 VG81687     0.0000 
     63 H          12.1853    1.1240   23.3263 H         1 VG81687     0.0000 
     64 H          13.3209    2.4080   23.7756 H         1 VG81687     0.0000 
     65 H           9.0286    5.4116   25.9625 H         1 VG81687     0.0000 
     66 H           4.4319    4.8490   25.1169 H         1 VG81687     0.0000 
     67 H           4.5737    0.8916   27.2123 H         1 VG81687     0.0000 
     68 H           8.0261    0.5946   26.6828 H         1 VG81687     0.0000 
     69 H           9.5389   -0.7039   28.0453 H         1 VG81687     0.0000 
     70 H           8.8122   -1.5578   30.1916 H         1 VG81687     0.0000 
     71 H           6.5781   -1.0659   30.9853 H         1 VG81687     0.0000 
     72 H          12.7005    3.6878   21.2835 H         1 VG81687     0.0000 
     73 H          11.6574    2.5289   20.8896 H         1 VG81687     0.0000 
     74 H          11.1416    4.0375   21.0997 H         1 VG81687     0.0000 
     75 H           4.3955   -1.6062   30.2936 H         1 VG81687     0.0000 
     76 H           4.9901   -0.6950   31.4778 H         1 VG81687     0.0000 
     77 H           3.4527   -0.5343   31.0341 H         1 VG81687     0.0000 
@<TRIPOS>BOND
     1    2    1 1    
     2    6    1 1    
     3   41    1 1    
     4   42    1 1    
     5    3    2 1    
     6   43    2 1    
     7   44    2 1    
     8    4    3 1    
     9   45    3 1    
    10   46    3 1    
    11    5    4 1    
    12   47    4 1    
    13   48    4 1    
    14    6    5 1    
    15   49    5 1    
    16   50    5 1    
    17    7    6 1    
    18   51    6 1    
    19    8    7 1    
    20   10    7 1    
    21   52    7 1    
    22    9    8 1    
    23   53    8 1    
    24   54    8 1    
    25   12    9 1    
    26   55    9 1    
    27   56    9 1    
    28   11   10 1    
    29   57   10 1    
    30   58   10 1    
    31   12   11 1    
    32   59   11 1    
    33   60   11 1    
    34   13   12 1    
    35   14   13 ar   
    36   16   13 ar   
    37   15   14 ar   
    38   61   14 1    
    39   23   15 ar   
    40   62   15 1    
    41   17   16 1    
    42   22   16 ar   
    43   18   17 1    
    44   63   17 1    
    45   64   17 1    
    46   19   18 1    
    47   20   18 am   
    48   72   19 1    
    49   73   19 1    
    50   74   19 1    
    51   21   20 2    
    52   22   20 1    
    53   23   22 ar   
    54   24   23 1    
    55   25   24 1    
    56   65   24 1    
    57   26   25 ar   
    58   27   25 ar   
    59   31   26 ar   
    60   28   27 1    
    61   29   27 ar   
    62   30   29 ar   
    63   66   29 1    
    64   31   30 ar   
    65   32   31 1    
    66   33   32 1    
    67   67   32 1    
    68   34   33 ar   
    69   38   33 ar   
    70   35   34 ar   
    71   68   34 1    
    72   36   35 ar   
    73   69   35 1    
    74   37   36 ar   
    75   70   36 1    
    76   38   37 ar   
    77   71   37 1    
    78   39   38 1    
    79   40   39 1    
    80   75   40 1    
    81   76   40 1    
    82   77   40 1    
@<TRIPOS>SUBSTRUCTURE
     1 VG81687     1 GROUP   
@<TRIPOS>SET

