#    Name: 1KAZ_1_CAVITY_N1_6.mol2
#    Modification time : Tue Mar 11 13:03:33 2014

@<TRIPOS>MOLECULE
1KAZ_1_CAVITY_N1_6.mol2
   90     0     7     0     0
SMALL
NO_CHARGES


@<TRIPOS>ATOM
      1 O          26.0108   40.2391   13.4103 O.2       2 ALA2        0.0000 
      2 N          24.8470   41.0379   12.9028 N.2       2 ALA2        0.0000 
      3 O          25.2135   40.6767   11.4938 O.2       2 ALA2        0.0000 
      4 OG         24.7717   39.3832   14.9043 O.2       1 SER1        0.0000 
      5 CA         23.6080   40.1820   14.3968 C.3       6 GLY6        0.0000 
      6 O          23.9745   39.8208   12.9878 O.2       2 ALA2        0.0000 
      7 CA         22.8107   40.6196   12.4803 C.3       6 GLY6        0.0000 
      8 O          24.3410   39.4596   11.5789 O.2       2 ALA2        0.0000 
      9 N          23.5326   38.5272   16.3983 N.2       2 ALA2        0.0000 
     10 CA         23.8992   38.1660   14.9894 C.3       6 GLY6        0.0000 
     11 CA         22.7354   38.9648   14.4819 C.3       6 GLY6        0.0000 
     12 O          23.1019   38.6036   13.0729 O.2       2 ALA2        0.0000 
     13 OD1        23.4684   38.2425   11.6639 O.3       3 ASP3        0.0000 
     14 O          22.3047   39.0413   11.1564 O.2       2 ALA2        0.0000 
     15 O          21.1409   39.8401   10.6489 O.2       2 ALA2        0.0000 
     16 N          22.6601   37.3101   16.4834 N.2       2 ALA2        0.0000 
     17 N          23.0266   36.9489   15.0744 N.2       2 ALA2        0.0000 
     18 O          21.8629   37.7477   14.5669 O.2       2 ALA2        0.0000 
     19 O          22.2294   37.3865   13.1579 O.2       2 ALA2        0.0000 
     20 O          22.5959   37.0253   11.7489 O.2       2 ALA2        0.0000 
     21 O          21.4321   37.8241   11.2414 O.2       2 ALA2        0.0000 
     22 O          19.1046   39.4218   10.2264 O.2       2 ALA2        0.0000 
     23 O          21.7987   37.4629    9.8325 O.2       2 ALA2        0.0000 
     24 O          20.6349   38.2618    9.3250 O.2       2 ALA2        0.0000 
     25 O          22.1652   37.1017    8.4235 O.2       2 ALA2        0.0000 
     26 O          21.4210   36.4541   17.9774 O.2       2 ALA2        0.0000 
     27 OD1        20.2573   37.2529   17.4699 O.3       3 ASP3        0.0000 
     28 N          21.7875   36.0929   16.5684 N.2       2 ALA2        0.0000 
     29 OD1        20.6238   36.8917   16.0609 O.3       3 ASP3        0.0000 
     30 O          20.9903   36.5306   14.6519 O.2       2 ALA2        0.0000 
     31 O          21.3568   36.1694   13.2430 O.2       2 ALA2        0.0000 
     32 O          18.2321   38.2046   10.3115 O.2       2 ALA2        0.0000 
     33 NZ         20.9261   36.2458    9.9175 N.2       4 LYS4        0.0000 
     34 O          19.7624   37.0446    9.4100 O.2       2 ALA2        0.0000 
     35 OG         20.1820   35.5982   19.4714 O.2       1 SER1        0.0000 
     36 OD1        19.0182   36.3970   18.9639 O.3       3 ASP3        0.0000 
     37 OD1        17.8544   37.1958   18.4564 O.3       3 ASP3        0.0000 
     38 OG         20.5485   35.2370   18.0624 O.2       1 SER1        0.0000 
     39 OD1        19.3847   36.0358   17.5549 O.3       3 ASP3        0.0000 
     40 NZ         18.2210   36.8346   17.0474 N.2       4 LYS4        0.0000 
     41 CA         20.9150   34.8758   16.6534 C.3       6 GLY6        0.0000 
     42 DU         19.7512   35.6746   16.1459 H         7 CUB7        0.0000 
     43 O          18.5875   36.4734   15.6384 O.2       2 ALA2        0.0000 
     44 O          20.1178   35.3134   14.7370 O.2       2 ALA2        0.0000 
     45 OG         17.3595   36.9875   10.3965 O.2       1 SER1        0.0000 
     46 O          16.6154   36.3399   19.9504 O.2       2 ALA2        0.0000 
     47 NZ         15.4516   37.1387   19.4429 N.2       4 LYS4        0.0000 
     48 CA         14.2879   37.9375   18.9354 C.3       6 GLY6        0.0000 
     49 OD1        13.1241   38.7363   18.4279 O.3       3 ASP3        0.0000 
     50 CA         18.1457   35.1798   19.0489 C.3       6 GLY6        0.0000 
     51 OD1        16.9819   35.9787   18.5414 O.3       3 ASP3        0.0000 
     52 NZ         15.8181   36.7775   18.0339 N.2       4 LYS4        0.0000 
     53 O          19.6759   34.0198   18.1475 O.2       2 ALA2        0.0000 
     54 CA         18.5122   34.8187   17.6399 C.3       6 GLY6        0.0000 
     55 CZ         17.3484   35.6175   17.1324 C.ar      5 PHE5        0.0000 
     56 CA         20.0425   33.6586   16.7385 C.3       6 GLY6        0.0000 
     57 CZ         18.8787   34.4575   16.2310 C.ar      5 PHE5        0.0000 
     58 CA         20.4090   33.2975   15.3295 C.3       6 GLY6        0.0000 
     59 CZ         19.2452   34.0963   14.8220 C.ar      5 PHE5        0.0000 
     60 CZ         18.0815   34.8951   14.3145 C.ar      5 PHE5        0.0000 
     61 NZ         19.6117   33.7351   13.4130 N.2       4 LYS4        0.0000 
     62 OG         18.4480   34.5339   12.9055 O.2       1 SER1        0.0000 
     63 CA         13.0488   37.0815   20.4294 C.3       6 GLY6        0.0000 
     64 CA         15.7428   35.1227   20.0354 C.3       6 GLY6        0.0000 
     65 CA         14.5791   35.9215   19.5279 C.3       6 GLY6        0.0000 
     66 OD1        13.4153   36.7203   19.0204 O.3       3 ASP3        0.0000 
     67 CA         16.1094   34.7615   18.6264 C.3       6 GLY6        0.0000 
     68 CZ         14.9456   35.5603   18.1189 C.ar      5 PHE5        0.0000 
     69 CA         17.6396   33.6015   17.7250 C.3       6 GLY6        0.0000 
     70 CZ         16.4759   34.4003   17.2175 C.ar      5 PHE5        0.0000 
     71 O          19.1699   32.4415   16.8235 O.2       2 ALA2        0.0000 
     72 CZ         18.0062   33.2403   16.3160 C.ar      5 PHE5        0.0000 
     73 O          19.5364   32.0803   15.4145 O.2       2 ALA2        0.0000 
     74 CZ         18.3727   32.8791   14.9070 C.ar      5 PHE5        0.0000 
     75 CA         19.9029   31.7191   14.0056 C.3       6 GLY6        0.0000 
     76 CA         18.7392   32.5179   13.4981 C.3       6 GLY6        0.0000 
     77 O          18.2974   31.2244   16.9086 O.2       2 ALA2        0.0000 
     78 CA         19.8276   30.0644   16.0071 C.3       6 GLY6        0.0000 
     79 OG         18.6639   30.8632   15.4996 O.2       1 SER1        0.0000 
     80 CZ         17.5001   31.6620   14.9921 C.ar      5 PHE5        0.0000 
     81 CA         20.1942   29.7032   14.5981 C.3       6 GLY6        0.0000 
     82 CA         19.0304   30.5020   14.0906 C.3       6 GLY6        0.0000 
     83 N          20.5607   29.3420   13.1891 N.2       2 ALA2        0.0000 
     84 N          19.3969   30.1408   12.6816 N.2       2 ALA2        0.0000 
     85 OD1        18.9551   28.8472   16.0921 O.3       3 ASP3        0.0000 
     86 OG         17.7913   29.6460   15.5846 O.2       1 SER1        0.0000 
     87 OD1        19.3216   28.4860   14.6832 O.3       3 ASP3        0.0000 
     88 N          18.1579   29.2848   14.1756 N.2       2 ALA2        0.0000 
     89 NZ         19.6881   28.1248   13.2742 N.2       4 LYS4        0.0000 
     90 N          18.5244   28.9237   12.7667 N.2       2 ALA2        0.0000 
@<TRIPOS>BOND
@<TRIPOS>SUBSTRUCTURE
     1 SER1        4 GROUP   
     2 ALA2        1 GROUP   
     3 ASP3       13 GROUP   
     4 LYS4       33 GROUP   
     5 PHE5       55 GROUP   
     6 GLY6        5 GROUP   
     7 CUB7       42 GROUP   
@<TRIPOS>SET

