#    Name: 1kaz_ATP_1_INTS_M
#    Modification time : Mon Apr  7 13:33:09 2014

@<TRIPOS>MOLECULE
1kaz_ATP_1_INTS_M
   82     0    12     0     0
SMALL
NO_CHARGES


@<TRIPOS>ATOM
      1 N          17.4685   29.3370   20.8345 N.am      2 SEC2        0.0000 
      2 N          18.1490   28.0470   20.1450 N.am     10 SEL2        0.0000 
      3 N          16.7880   30.6270   21.5240 N.am      6 SEP2        0.0000 
      4 N          17.9995   28.2355   21.5045 N.am      2 SEC2        0.0000 
      5 N          17.8500   28.4240   22.8640 N.am      6 SEP2        0.0000 
      6 N          18.3570   26.8850   20.9090 N.am      2 SEC2        0.0000 
      7 N          18.5650   25.7230   21.6730 N.am      6 SEP2        0.0000 
      8 Zn         19.1095   26.4315   17.1130 Zn        3 ZIC7        0.0000 
      9 Zn         18.6390   26.5070   18.1860 Zn       11 ZIL7        0.0000 
     10 Zn         19.5800   26.3560   16.0400 Zn        7 ZIP7        0.0000 
     11 N          15.2040   26.9255   17.8870 N.am      2 SEC2        0.0000 
     12 N          16.2910   27.1700   18.7030 N.am     10 SEL2        0.0000 
     13 N          14.1170   26.6810   17.0710 N.am      6 SEP2        0.0000 
     14 N          15.2710   26.5770   19.2290 N.am      2 SEC2        0.0000 
     15 N          14.2510   25.9840   19.7550 N.am      6 SEP2        0.0000 
     16 Zn         18.9410   27.1330   15.8435 Zn        3 ZIC7        0.0000 
     17 Zn         18.3020   27.9100   15.6470 Zn       11 ZIL7        0.0000 
     18 N          14.8925   29.2965   16.6375 N.am      2 SEC2        0.0000 
     19 N          16.1330   29.1480   16.1600 N.am     10 SEL2        0.0000 
     20 N          13.6520   29.4450   17.1150 N.am      6 SEP2        0.0000 
     21 N          15.8950   30.3680   16.6950 N.am      2 SEC2        0.0000 
     22 N          15.6570   31.5880   17.2300 N.am      6 SEP2        0.0000 
     23 N          15.2385   29.8370   15.3655 N.am      2 SEC2        0.0000 
     24 N          14.3440   30.5260   14.5710 N.am      6 SEP2        0.0000 
     25 N          18.2015   30.0700   18.7005 N.am      2 SEC2        0.0000 
     26 N          17.8080   28.8290   17.9230 N.am     10 SEL2        0.0000 
     27 N          18.5950   31.3110   19.4780 N.am      6 SEP2        0.0000 
     28 N          21.8500   31.1200   15.6910 N.am      2 SEC2        0.0000 
     29 N          20.7130   30.0980   15.4250 N.am     10 SEL2        0.0000 
     30 N          22.9870   32.1420   15.9570 N.am      6 SEP2        0.0000 
     31 N          18.4570   30.8395   17.8425 N.am      2 SEC2        0.0000 
     32 N          18.3190   30.3680   16.2070 N.am     10 SEL2        0.0000 
     33 N          21.3805   32.1795   16.0780 N.am      2 SEC2        0.0000 
     34 N          19.7740   32.2170   16.1990 N.am     10 SEL2        0.0000 
     35 CA         17.2650   33.4330   15.4320 C.3       4 GLC5        0.0000 
     36 CA         18.8320   33.2770   16.3550 C.3      12 GLL5        0.0000 
     37 CA         15.6980   33.5890   14.5090 C.3       8 GLP5        0.0000 
     38 N          19.0775   38.1010   18.9925 N.am      2 SEC2        0.0000 
     39 N          18.7170   37.6920   17.7290 N.am     10 SEL2        0.0000 
     40 N          19.4380   38.5100   20.2560 N.am      6 SEP2        0.0000 
     41 O          18.0500   38.4530   16.9955 O.2       1 ALC1        0.0000 
     42 O          18.7170   37.6920   17.7290 O.2       9 ALL1        0.0000 
     43 O          17.3830   39.2140   16.2620 O.2       5 ALP1        0.0000 
     44 CA         21.8440   34.8370   16.5075 C.3       4 GLC5        0.0000 
     45 CA         20.5060   36.1060   17.2680 C.3      12 GLL5        0.0000 
     46 CA         23.1820   33.5680   15.7470 C.3       8 GLP5        0.0000 
     47 CA         22.3380   35.3065   18.2805 C.3       4 GLC5        0.0000 
     48 CA         24.1700   34.5070   19.2930 C.3       8 GLP5        0.0000 
     49 CA         24.3505   37.0265   14.4670 C.3       4 GLC5        0.0000 
     50 CA         22.8980   38.0510   15.4140 C.3      12 GLL5        0.0000 
     51 CA         25.8030   36.0020   13.5200 C.3       8 GLP5        0.0000 
     52 CA         23.3495   40.7005   15.7525 C.3       4 GLC5        0.0000 
     53 CA         23.9860   38.9340   15.5030 C.3      12 GLL5        0.0000 
     54 CA         22.7130   42.4670   16.0020 C.3       8 GLP5        0.0000 
     55 CA         25.6885   40.0915   15.9565 C.3       4 GLC5        0.0000 
     56 CA         27.3910   41.2490   16.4100 C.3       8 GLP5        0.0000 
     57 CA         25.6380   37.8430   15.4775 C.3       4 GLC5        0.0000 
     58 CA         27.2900   36.7520   15.4520 C.3       8 GLP5        0.0000 
     59 N          25.5660   39.9415   17.0870 N.am      2 SEC2        0.0000 
     60 N          24.4550   39.2840   16.7210 N.am     10 SEL2        0.0000 
     61 N          26.6770   40.5990   17.4530 N.am      6 SEP2        0.0000 
     62 CA         22.0795   39.2025   18.7990 C.3       4 GLC5        0.0000 
     63 CA         23.8520   38.7760   17.7950 C.3      12 GLL5        0.0000 
     64 CA         20.3070   39.6290   19.8030 C.3       8 GLP5        0.0000 
     65 CA         23.2825   40.6215   16.8985 C.3       4 GLC5        0.0000 
     66 CA         25.0035   38.5035   19.2440 C.3       4 GLC5        0.0000 
     67 CA         26.1550   38.2310   20.6930 C.3       8 GLP5        0.0000 
     68 CA         21.3435   38.6215   18.2030 C.3       4 GLC5        0.0000 
     69 CA         22.3800   37.6140   16.6030 C.3      12 GLL5        0.0000 
     70 CA         22.7810   35.5910   16.1750 C.3       4 GLC5        0.0000 
     71 CA         23.2750   36.0605   17.9480 C.3       4 GLC5        0.0000 
     72 CA         21.1290   33.6418   16.3287 C.3       4 GLC5        0.0000 
     73 CA         19.3200   34.1540   17.4660 C.3      12 GLL5        0.0000 
     74 CA         17.0983   35.3948   16.1638 C.3       4 GLC5        0.0000 
     75 CA         18.3490   35.2960   17.8170 C.3      12 GLL5        0.0000 
     76 CA         15.5080   34.9200   14.8720 C.3       8 GLP5        0.0000 
     77 CA         18.1827   33.3999   18.6734 C.3       4 GLC5        0.0000 
     78 CA         17.6530   32.2940   19.9830 C.3       8 GLP5        0.0000 
     79 CA         20.0370   37.9518   18.4920 C.3       4 GLC5        0.0000 
     80 CA         19.0280   36.4430   17.0940 C.3      12 GLL5        0.0000 
     81 CA         21.7110   39.4223   15.5773 C.3       4 GLC5        0.0000 
     82 CA         20.7830   41.0120   15.1460 C.3       8 GLP5        0.0000 
@<TRIPOS>BOND
@<TRIPOS>SUBSTRUCTURE
     1 ALC1       41 GROUP        1 X    ALC  0     ROOT ALC X 1
     2 SEC2        1 GROUP        1 X    SEC  0     **** SEC X 2
     3 ZIC7        8 GROUP        1 X    ZIC  0     **** ZIC X 5
     4 GLC5       35 GROUP        1 X    GLC  0     **** GLC X 6
     5 ALP1       43 GROUP        1 Y    ALP  0     ROOT ALP Y 8
     6 SEP2        3 GROUP        1 Y    SEP  0     **** SEP Y 9
     7 ZIP7       10 GROUP        1 Y    ZIP  0     **** ZIP Y 12
     8 GLP5       37 GROUP        1 Y    GLP  0     **** GLP Y 13
     9 ALL1       42 GROUP        1 Z    ALL  0     ROOT ALL Z 15
    10 SEL2        2 GROUP        1 Z    SEL  0     **** SEL Z 16
    11 ZIL7        9 GROUP        1 Z    ZIL  0     **** ZIL Z 19
    12 GLL5       36 GROUP        1 Z    GLL  0     **** GLL Z 20
@<TRIPOS>SET

