#    Name: 1kaz_ATP_1_ligand
#    Modification time : Mon Apr  7 13:33:09 2014

@<TRIPOS>MOLECULE
1kaz_ATP_1_ligand
   43    45     1     0     0
SMALL
NO_CHARGES


@<TRIPOS>ATOM
      1 PG         17.6950   27.5220   18.8290 P.3       1 ATP486      0.0000 
      2 O1G        18.1490   28.0470   20.1450 O.co2     1 ATP486      0.0000 
      3 O2G        18.6390   26.5070   18.1860 O.co2     1 ATP486      0.0000 
      4 O3G        16.2910   27.1700   18.7030 O.co2     1 ATP486      0.0000 
      5 PB         17.5890   28.9920   16.3530 P.3       1 ATP486      0.0000 
      6 O1B        18.3020   27.9100   15.6470 O.co2     1 ATP486      0.0000 
      7 O2B        16.1330   29.1480   16.1600 O.co2     1 ATP486      0.0000 
      8 O3B        17.8080   28.8290   17.9230 O.3       1 ATP486      0.0000 
      9 PA         19.4900   30.9380   15.3120 P.3       1 ATP486      0.0000 
     10 O1A        20.7130   30.0980   15.4250 O.co2     1 ATP486      0.0000 
     11 O2A        19.0000   31.4100   14.0130 O.co2     1 ATP486      0.0000 
     12 O3A        18.3190   30.3680   16.2070 O.3       1 ATP486      0.0000 
     13 O5'        19.7740   32.2170   16.1990 O.3       1 ATP486      0.0000 
     14 C5'        18.8320   33.2770   16.3550 C.3       1 ATP486      0.0000 
     15 C4'        19.3200   34.1540   17.4660 C.3       1 ATP486      0.0000 
     16 O4'        20.5620   34.7130   17.0170 O.3       1 ATP486      0.0000 
     17 C3'        18.3490   35.2960   17.8170 C.3       1 ATP486      0.0000 
     18 O3'        18.3610   35.4850   19.2420 O.3       1 ATP486      0.0000 
     19 C2'        19.0280   36.4430   17.0940 C.3       1 ATP486      0.0000 
     20 O2'        18.7170   37.6920   17.7290 O.3       1 ATP486      0.0000 
     21 C1'        20.5060   36.1060   17.2680 C.3       1 ATP486      0.0000 
     22 N9         21.3440   36.7750   16.2770 N.pl3     1 ATP486      0.0000 
     23 C8         21.2890   36.7460   14.8930 C.2       1 ATP486      0.0000 
     24 N7         22.2040   37.4980   14.3300 N.2       1 ATP486      0.0000 
     25 C5         22.8980   38.0510   15.4140 C.ar      1 ATP486      0.0000 
     26 C6         23.9860   38.9340   15.5030 C.ar      1 ATP486      0.0000 
     27 N6         24.5150   39.4750   14.4140 N.pl3     1 ATP486      0.0000 
     28 N1         24.4550   39.2840   16.7210 N.ar      1 ATP486      0.0000 
     29 C2         23.8520   38.7760   17.7950 C.ar      1 ATP486      0.0000 
     30 N3         22.8160   37.9430   17.8530 N.ar      1 ATP486      0.0000 
     31 C4         22.3800   37.6140   16.6030 C.ar      1 ATP486      0.0000 
     32 H          17.8431   32.8993   16.6165 H         1 ATP486      0.0000 
     33 H          18.7487   33.8760   15.4477 H         1 ATP486      0.0000 
     34 H          19.4810   33.5553   18.3462 H         1 ATP486      0.0000 
     35 H          17.4345   35.0958   17.3934 H         1 ATP486      0.0000 
     36 H          18.7874   36.3995   16.0769 H         1 ATP486      0.0000 
     37 H          20.7942   36.3312   18.2556 H         1 ATP486      0.0000 
     38 H          20.6103   36.1985   14.4125 H         1 ATP486      0.0000 
     39 H          24.0674   39.2495   13.5487 H         1 ATP486      0.0000 
     40 H          25.3137   40.0596   14.5566 H         1 ATP486      0.0000 
     41 H          24.2703   39.0901   18.7718 H         1 ATP486      0.0000 
     42 H          18.3523   36.4765   19.3715 H         1 ATP486      0.0000 
     43 H          17.8284   37.9579   17.3554 H         1 ATP486      0.0000 
@<TRIPOS>BOND
     1    2    1 ar   
     2    3    1 ar   
     3    4    1 ar   
     4    8    1 1    
     5    6    5 ar   
     6    7    5 ar   
     7    8    5 1    
     8   12    5 1    
     9   10    9 ar   
    10   11    9 ar   
    11   12    9 1    
    12   13    9 1    
    13   14   13 1    
    14   15   14 1    
    15   32   14 1    
    16   33   14 1    
    17   16   15 1    
    18   17   15 1    
    19   34   15 1    
    20   21   16 1    
    21   18   17 1    
    22   19   17 1    
    23   35   17 1    
    24   42   18 1    
    25   20   19 1    
    26   21   19 1    
    27   36   19 1    
    28   43   20 1    
    29   22   21 1    
    30   37   21 1    
    31   23   22 1    
    32   31   22 1    
    33   24   23 2    
    34   38   23 1    
    35   25   24 1    
    36   26   25 ar   
    37   31   25 ar   
    38   27   26 1    
    39   28   26 ar   
    40   39   27 1    
    41   40   27 1    
    42   29   28 ar   
    43   30   29 ar   
    44   41   29 1    
    45   31   30 ar   
@<TRIPOS>SUBSTRUCTURE
     1 ATP486      1 GROUP   
@<TRIPOS>SET

