#    Name: 3pm0_BHF_1_INTS_M
#    Modification time : Tue Mar 25 08:10:45 2014

@<TRIPOS>MOLECULE
3pm0_BHF_1_INTS_M
   51     0     3     0     0
SMALL
NO_CHARGES


@<TRIPOS>ATOM
      1 CA        -18.4500   21.0770  -21.8600 C.3       1 GLC5        0.0000 
      2 CA        -17.5010   19.5090  -20.5740 C.3       3 GLL5        0.0000 
      3 CA        -19.3990   22.6450  -23.1460 C.3       2 GLP5        0.0000 
      4 CA        -17.3035   18.8980  -18.7600 C.3       1 GLC5        0.0000 
      5 CA        -17.1060   18.2870  -16.9460 C.3       2 GLP5        0.0000 
      6 CA        -15.7280   22.2665  -23.3400 C.3       1 GLC5        0.0000 
      7 CA        -15.7460   22.6830  -21.2860 C.3       3 GLL5        0.0000 
      8 CA        -15.7100   21.8500  -25.3940 C.3       2 GLP5        0.0000 
      9 CA        -17.5330   20.9790  -18.3365 C.3       1 GLC5        0.0000 
     10 CA        -17.8030   22.2160  -20.1170 C.3       3 GLL5        0.0000 
     11 CA        -17.2630   19.7420  -16.5560 C.3       2 GLP5        0.0000 
     12 CA        -19.5710   21.2395  -21.1265 C.3       1 GLC5        0.0000 
     13 CA        -18.6030   19.9930  -19.8770 C.3       3 GLL5        0.0000 
     14 CA        -20.5390   22.4860  -22.3760 C.3       2 GLP5        0.0000 
     15 CA        -17.9330   19.8675  -18.2165 C.3       1 GLC5        0.0000 
     16 CA        -18.9295   19.7335  -17.5655 C.3       1 GLC5        0.0000 
     17 CA        -20.5960   19.7250  -18.5750 C.3       3 GLL5        0.0000 
     18 CA        -18.2720   19.4825  -22.0873 C.3       1 GLC5        0.0000 
     19 CA        -18.4920   19.2140  -23.9490 C.3       2 GLP5        0.0000 
     20 CA        -15.5410   22.3907  -19.2165 C.3       1 GLC5        0.0000 
     21 CA        -16.7040   21.7720  -20.8460 C.3       3 GLL5        0.0000 
     22 CA        -14.8570   22.5540  -17.3670 C.3       2 GLP5        0.0000 
     23 CA        -15.6505   23.4047  -18.9952 C.3       1 GLC5        0.0000 
     24 CA        -15.8940   24.0350  -20.9890 C.3       3 GLL5        0.0000 
     25 CA        -17.7300   27.3302  -20.9820 C.3       1 GLC5        0.0000 
     26 CA        -17.1580   25.8320  -19.9880 C.3       3 GLL5        0.0000 
     27 CA        -17.7430   28.6100  -22.3280 C.3       2 GLP5        0.0000 
     28 CA        -20.2915   26.9620  -18.3385 C.3       1 GLC5        0.0000 
     29 CA        -18.2760   26.2690  -19.2840 C.3       3 GLL5        0.0000 
     30 CA        -21.8280   28.1100  -17.6110 C.3       2 GLP5        0.0000 
     31 CA        -19.6815   23.9177  -17.2218 C.3       1 GLC5        0.0000 
     32 CA        -19.2340   25.3590  -18.8480 C.3       3 GLL5        0.0000 
     33 CA        -20.2100   23.1550  -15.4620 C.3       2 GLP5        0.0000 
     34 CA        -20.1578   25.4910  -20.3002 C.3       1 GLC5        0.0000 
     35 CA        -19.0720   24.0020  -19.1150 C.3       3 GLL5        0.0000 
     36 CA        -21.4020   26.0740  -21.5100 C.3       2 GLP5        0.0000 
     37 CA        -16.3675   22.7222  -18.6675 C.3       1 GLC5        0.0000 
     38 CA        -17.9530   23.5650  -19.8190 C.3       3 GLL5        0.0000 
     39 CA        -21.8535   19.6760  -19.8885 C.3       1 GLC5        0.0000 
     40 CA        -19.5760   19.1590  -19.3330 C.3       3 GLL5        0.0000 
     41 CA        -23.6210   19.9100  -20.8230 C.3       2 GLP5        0.0000 
     42 CA        -20.5840   16.5720  -20.9565 C.3       1 GLC5        0.0000 
     43 CA        -19.5400   17.7800  -19.5210 C.3       3 GLL5        0.0000 
     44 CA        -21.1390   15.7680  -22.6770 C.3       2 GLP5        0.0000 
     45 CA        -18.5720   18.0039  -18.0675 C.3       1 GLC5        0.0000 
     46 CA        -20.5180   16.9720  -18.9510 C.3       3 GLL5        0.0000 
     47 CA        -22.5880   19.0688  -19.4590 C.3       1 GLC5        0.0000 
     48 CA        -21.5740   18.9170  -18.0020 C.3       3 GLL5        0.0000 
     49 CA        -21.3473   18.7156  -16.4780 C.3       1 GLC5        0.0000 
     50 CA        -21.5360   17.5380  -18.1880 C.3       3 GLL5        0.0000 
     51 CA        -21.6190   18.4550  -14.6210 C.3       2 GLP5        0.0000 
@<TRIPOS>BOND
@<TRIPOS>SUBSTRUCTURE
     1 GLC5        1 GROUP        1 X    GLC  0     ROOT GLC X 6
     2 GLP5        3 GROUP        1 Y    GLP  0     ROOT GLP Y 13
     3 GLL5        2 GROUP        1 Z    GLL  0     ROOT GLL Z 20
@<TRIPOS>SET

