#    Name: 3pm0_BHF_1_ligand
#    Modification time : Tue Mar 25 08:10:45 2014

@<TRIPOS>MOLECULE
3pm0_BHF_1_ligand
   33    36     1     0     0
SMALL
NO_CHARGES


@<TRIPOS>ATOM
      1 C8        -17.5010   19.5090  -20.5740 C.2       1 BHF800      0.0000 
      2 C9        -16.5560   20.4060  -21.0680 C.2       1 BHF800      0.0000 
      3 O2        -15.6020   19.9900  -21.7270 O.2       1 BHF800      0.0000 
      4 C10       -16.7040   21.7720  -20.8460 C.ar      1 BHF800      0.0000 
      5 C11       -15.7460   22.6830  -21.2860 C.ar      1 BHF800      0.0000 
      6 C12       -15.8940   24.0350  -20.9890 C.ar      1 BHF800      0.0000 
      7 C13       -16.9940   24.4760  -20.2580 C.ar      1 BHF800      0.0000 
      8 C14       -17.1580   25.8320  -19.9880 C.ar      1 BHF800      0.0000 
      9 C15       -18.2760   26.2690  -19.2840 C.ar      1 BHF800      0.0000 
     10 C16       -19.2340   25.3590  -18.8480 C.ar      1 BHF800      0.0000 
     11 C17       -19.0720   24.0020  -19.1150 C.ar      1 BHF800      0.0000 
     12 C18       -17.9530   23.5650  -19.8190 C.ar      1 BHF800      0.0000 
     13 C19       -17.8030   22.2160  -20.1170 C.ar      1 BHF800      0.0000 
     14 O1        -18.8000   21.3400  -19.8140 O.3       1 BHF800      0.0000 
     15 C7        -18.6030   19.9930  -19.8770 C.2       1 BHF800      0.0000 
     16 C1        -19.5760   19.1590  -19.3330 C.ar      1 BHF800      0.0000 
     17 C2        -19.5400   17.7800  -19.5210 C.ar      1 BHF800      0.0000 
     18 C3        -20.5180   16.9720  -18.9510 C.ar      1 BHF800      0.0000 
     19 C4        -21.5360   17.5380  -18.1880 C.ar      1 BHF800      0.0000 
     20 C5        -21.5740   18.9170  -18.0020 C.ar      1 BHF800      0.0000 
     21 C6        -20.5960   19.7250  -18.5750 C.ar      1 BHF800      0.0000 
     22 H         -17.3842   18.5031  -20.7233 H         1 BHF800      0.0000 
     23 H         -14.9368   22.3590  -21.8254 H         1 BHF800      0.0000 
     24 H         -15.1878   24.7112  -21.3109 H         1 BHF800      0.0000 
     25 H         -16.4546   26.5086  -20.3081 H         1 BHF800      0.0000 
     26 H         -18.3951   27.2733  -19.0843 H         1 BHF800      0.0000 
     27 H         -20.0581   25.6866  -18.3309 H         1 BHF800      0.0000 
     28 H         -19.7746   23.3267  -18.7942 H         1 BHF800      0.0000 
     29 H         -18.7882   17.3584  -20.0828 H         1 BHF800      0.0000 
     30 H         -20.4899   15.9531  -19.0931 H         1 BHF800      0.0000 
     31 H         -22.2549   16.9411  -17.7648 H         1 BHF800      0.0000 
     32 H         -22.3251   19.3391  -17.4409 H         1 BHF800      0.0000 
     33 H         -20.6280   20.7447  -18.4372 H         1 BHF800      0.0000 
@<TRIPOS>BOND
     1    2    1 1    
     2   15    1 2    
     3   22    1 1    
     4    3    2 2    
     5    4    2 1    
     6    5    4 ar   
     7   13    4 ar   
     8    6    5 ar   
     9   23    5 1    
    10    7    6 ar   
    11   24    6 1    
    12    8    7 ar   
    13   12    7 ar   
    14    9    8 ar   
    15   25    8 1    
    16   10    9 ar   
    17   26    9 1    
    18   11   10 ar   
    19   27   10 1    
    20   12   11 ar   
    21   28   11 1    
    22   13   12 ar   
    23   14   13 1    
    24   15   14 1    
    25   16   15 1    
    26   17   16 ar   
    27   21   16 ar   
    28   18   17 ar   
    29   29   17 1    
    30   19   18 ar   
    31   30   18 1    
    32   20   19 ar   
    33   31   19 1    
    34   21   20 ar   
    35   32   20 1    
    36   33   21 1    
@<TRIPOS>SUBSTRUCTURE
     1 BHF800      1 GROUP   
@<TRIPOS>SET

