#    Name: 3bmc_FOL_4_INTS_M
#    Modification time : Mon Mar 24 19:53:23 2014

@<TRIPOS>MOLECULE
3bmc_FOL_4_INTS_M
   38     0     6     0     0
SMALL
NO_CHARGES


@<TRIPOS>ATOM
      1 O         -24.2940   -7.2415   22.2475 O.2       1 ALC1        0.0000 
      2 O         -25.1410   -8.2110   23.0820 O.2       5 ALL1        0.0000 
      3 O         -23.4470   -6.2720   21.4130 O.2       3 ALP1        0.0000 
      4 O         -25.1665   -6.8075   23.2865 O.2       1 ALC1        0.0000 
      5 O         -25.1920   -5.4040   23.4910 O.2       3 ALP1        0.0000 
      6 O         -28.9655   -7.1555   22.8145 O.2       1 ALC1        0.0000 
      7 O         -27.3750   -7.6250   23.2140 O.2       5 ALL1        0.0000 
      8 O         -30.5560   -6.6860   22.4150 O.2       3 ALP1        0.0000 
      9 O         -27.7010   -6.4685   22.5500 O.2       1 ALC1        0.0000 
     10 O         -28.0270   -5.3120   21.8860 O.2       3 ALP1        0.0000 
     11 O         -28.5160   -8.5335   24.0530 O.2       1 ALC1        0.0000 
     12 O         -29.6570   -9.4420   24.8920 O.2       3 ALP1        0.0000 
     13 O         -26.2835   -6.5145   23.3525 O.2       1 ALC1        0.0000 
     14 CA        -24.7795   -7.2845   24.0860 C.3       2 GLC5        0.0000 
     15 CA        -24.1300   -9.0820   23.2800 C.3       6 GLL5        0.0000 
     16 CA        -25.4290   -5.4870   24.8920 C.3       4 GLP5        0.0000 
     17 CA        -19.3545  -12.5540   24.8730 C.3       2 GLC5        0.0000 
     18 CA        -20.8710  -11.7710   23.8320 C.3       6 GLL5        0.0000 
     19 CA        -17.8380  -13.3370   25.9140 C.3       4 GLP5        0.0000 
     20 CA        -21.1165   -9.9580   24.7865 C.3       2 GLC5        0.0000 
     21 CA        -21.3620   -8.1450   25.7410 C.3       4 GLP5        0.0000 
     22 CA        -24.5790  -15.0710   22.6280 C.3       2 GLC5        0.0000 
     23 CA        -23.0090  -15.3360   21.3600 C.3       6 GLL5        0.0000 
     24 CA        -26.1490  -14.8060   23.8960 C.3       4 GLP5        0.0000 
     25 CA        -23.9875  -14.6130   23.7330 C.3       2 GLC5        0.0000 
     26 CA        -22.7990  -14.4720   22.3950 C.3       6 GLL5        0.0000 
     27 CA        -25.1760  -14.7540   25.0710 C.3       4 GLP5        0.0000 
     28 CA        -24.5525  -15.4145   17.5370 C.3       2 GLC5        0.0000 
     29 CA        -24.8880  -17.2410   18.4440 C.3       6 GLL5        0.0000 
     30 CA        -24.2170  -13.5880   16.6300 C.3       4 GLP5        0.0000 
     31 CA        -22.5508  -15.9720   22.3717 C.3       2 GLC5        0.0000 
     32 CA        -22.8280  -17.9100   22.3830 C.3       4 GLP5        0.0000 
     33 CA        -20.0222  -13.3152   19.5800 C.3       2 GLC5        0.0000 
     34 CA        -21.1100  -14.4770   20.1460 C.3       6 GLL5        0.0000 
     35 CA        -19.0450  -12.6060   18.4810 C.3       4 GLP5        0.0000 
     36 CA        -22.3409  -16.4116   21.4287 C.3       2 GLC5        0.0000 
     37 CA        -23.8006  -18.3365   20.6369 C.3       2 GLC5        0.0000 
     38 CA        -25.1270  -18.4030   19.3930 C.3       6 GLL5        0.0000 
@<TRIPOS>BOND
@<TRIPOS>SUBSTRUCTURE
     1 ALC1        1 GROUP        1 X    ALC  0     ROOT ALC X 1
     2 GLC5       14 GROUP        1 X    GLC  0     **** GLC X 6
     3 ALP1        3 GROUP        1 Y    ALP  0     ROOT ALP Y 8
     4 GLP5       16 GROUP        1 Y    GLP  0     **** GLP Y 13
     5 ALL1        2 GROUP        1 Z    ALL  0     ROOT ALL Z 15
     6 GLL5       15 GROUP        1 Z    GLL  0     **** GLL Z 20
@<TRIPOS>SET

