#    Name: 3bmc_FOL_4_ligand
#    Modification time : Mon Mar 24 19:53:23 2014

@<TRIPOS>MOLECULE
3bmc_FOL_4_ligand
   49    51     1     0     0
SMALL
NO_CHARGES


@<TRIPOS>ATOM
      1 N1        -25.1410   -8.2110   23.0820 N.pl3     1 FOL270      0.0000 
      2 C2        -26.3950   -8.5280   23.4350 C.2       1 FOL270      0.0000 
      3 NA2       -27.3750   -7.6250   23.2140 N.pl3     1 FOL270      0.0000 
      4 N3        -26.6710   -9.7240   24.0040 N.2       1 FOL270      0.0000 
      5 C4        -25.6930  -10.6460   24.2200 C.2       1 FOL270      0.0000 
      6 O4        -26.0650  -11.8360   24.7830 O.2       1 FOL270      0.0000 
      7 C4A       -24.3660  -10.3440   23.8570 C.ar      1 FOL270      0.0000 
      8 N5        -23.3100  -11.2030   24.0290 N.ar      1 FOL270      0.0000 
      9 C6        -22.0440  -10.8250   23.6560 C.ar      1 FOL270      0.0000 
     10 C7        -21.8560   -9.5770   23.0680 C.ar      1 FOL270      0.0000 
     11 N8        -22.8830   -8.7250   22.9040 N.ar      1 FOL270      0.0000 
     12 C8A       -24.1300   -9.0820   23.2800 C.ar      1 FOL270      0.0000 
     13 C9        -20.8710  -11.7710   23.8320 C.3       1 FOL270      0.0000 
     14 N10       -21.6940  -12.8650   23.4530 N.pl3     1 FOL270      0.0000 
     15 C11       -22.1860  -15.3630   20.2460 C.ar      1 FOL270      0.0000 
     16 C12       -23.0090  -15.3360   21.3600 C.ar      1 FOL270      0.0000 
     17 C13       -22.7990  -14.4720   22.3950 C.ar      1 FOL270      0.0000 
     18 C14       -21.7480  -13.5960   22.3260 C.ar      1 FOL270      0.0000 
     19 C15       -20.8890  -13.5720   21.2120 C.ar      1 FOL270      0.0000 
     20 C16       -21.1100  -14.4770   20.1460 C.ar      1 FOL270      0.0000 
     21 C         -22.6570  -16.3900   19.2660 C.2       1 FOL270      0.0000 
     22 O         -21.9120  -17.1410   18.6400 O.2       1 FOL270      0.0000 
     23 N         -24.0020  -16.3920   19.2140 N.am      1 FOL270      0.0000 
     24 CA        -24.8880  -17.2410   18.4440 C.3       1 FOL270      0.0000 
     25 CB        -25.1270  -18.4030   19.3930 C.3       1 FOL270      0.0000 
     26 CG        -24.5390  -19.7040   18.8630 C.3       1 FOL270      0.0000 
     27 CD        -25.0010  -20.8150   19.7760 C.2       1 FOL270      0.0000 
     28 OE1       -24.5760  -21.9770   19.6000 O.co2     1 FOL270      0.0000 
     29 OE2       -25.8110  -20.5200   20.6870 O.co2     1 FOL270      0.0000 
     30 CT        -26.2230  -16.5870   18.2600 C.2       1 FOL270      0.0000 
     31 O1        -27.0720  -17.1720   17.5390 O.co2     1 FOL270      0.0000 
     32 O2        -26.4430  -15.4960   18.8460 O.co2     1 FOL270      0.0000 
     33 H         -24.9404   -7.2786   22.6478 H         1 FOL270      0.0000 
     34 H         -28.3024   -7.9155   23.4499 H         1 FOL270      0.0000 
     35 H         -27.0861   -6.7462   22.8341 H         1 FOL270      0.0000 
     36 H         -20.8943   -9.3183   22.7565 H         1 FOL270      0.0000 
     37 H         -20.6078  -11.7930   24.8253 H         1 FOL270      0.0000 
     38 H         -20.1546  -11.5465   23.1300 H         1 FOL270      0.0000 
     39 H         -22.4181  -13.1501   24.2521 H         1 FOL270      0.0000 
     40 H         -23.8158  -16.0036   21.4007 H         1 FOL270      0.0000 
     41 H         -23.4194  -14.4764   23.2162 H         1 FOL270      0.0000 
     42 H         -20.1161  -12.9128   21.1692 H         1 FOL270      0.0000 
     43 H         -20.5022  -14.4756   19.3395 H         1 FOL270      0.0000 
     44 H         -24.5362  -15.6618   19.8278 H         1 FOL270      0.0000 
     45 H         -24.4829  -17.5807   17.5714 H         1 FOL270      0.0000 
     46 H         -26.2045  -18.5313   19.5431 H         1 FOL270      0.0000 
     47 H         -24.6754  -18.1748   20.3646 H         1 FOL270      0.0000 
     48 H         -23.4636  -19.6421   18.8754 H         1 FOL270      0.0000 
     49 H         -24.8983  -19.8779   17.8625 H         1 FOL270      0.0000 
@<TRIPOS>BOND
     1    2    1 1    
     2   12    1 1    
     3   33    1 1    
     4    3    2 1    
     5    4    2 2    
     6   34    3 1    
     7   35    3 1    
     8    5    4 1    
     9    6    5 2    
    10    7    5 1    
    11    8    7 ar   
    12   12    7 ar   
    13    9    8 ar   
    14   10    9 ar   
    15   13    9 1    
    16   11   10 ar   
    17   36   10 1    
    18   12   11 ar   
    19   14   13 1    
    20   37   13 1    
    21   38   13 1    
    22   18   14 1    
    23   39   14 1    
    24   16   15 ar   
    25   20   15 ar   
    26   21   15 1    
    27   17   16 ar   
    28   40   16 1    
    29   18   17 ar   
    30   41   17 1    
    31   19   18 ar   
    32   20   19 ar   
    33   42   19 1    
    34   43   20 1    
    35   22   21 2    
    36   23   21 am   
    37   24   23 1    
    38   44   23 1    
    39   25   24 1    
    40   30   24 1    
    41   45   24 1    
    42   26   25 1    
    43   46   25 1    
    44   47   25 1    
    45   27   26 1    
    46   48   26 1    
    47   49   26 1    
    48   28   27 ar   
    49   29   27 ar   
    50   31   30 ar   
    51   32   30 ar   
@<TRIPOS>SUBSTRUCTURE
     1 FOL270      1 GROUP   
@<TRIPOS>SET

