#    Name: 1kny_APC_1_INTS_M
#    Modification time : Mon Apr  7 13:37:39 2014

@<TRIPOS>MOLECULE
1kny_APC_1_INTS_M
   50     0    12     0     0
SMALL
NO_CHARGES


@<TRIPOS>ATOM
      1 Zn         10.1795   40.2005   40.7855 Zn        3 ZIC7        0.0000 
      2 Zn         10.2290   39.0840   40.7630 Zn       11 ZIL7        0.0000 
      3 Zn         10.1300   41.3170   40.8080 Zn        7 ZIP7        0.0000 
      4 N           8.9215   39.2930   40.2340 N.am      1 SEC2        0.0000 
      5 N          10.2290   39.0840   40.7630 N.am      9 SEL2        0.0000 
      6 N           7.6140   39.5020   39.7050 N.am      5 SEP2        0.0000 
      7 N           8.6515   36.6765   40.8240 N.am      1 SEC2        0.0000 
      8 N           9.4170   37.0390   39.6480 N.am      9 SEL2        0.0000 
      9 N           7.8860   36.3140   42.0000 N.am      5 SEP2        0.0000 
     10 NZ         10.8995   40.2545   35.8470 N.4       2 LYC4        0.0000 
     11 NZ         11.9410   39.9870   36.4840 N.4      10 LYL4        0.0000 
     12 NZ          8.7530   40.0530   34.6060 N.4       6 LYP4        0.0000 
     13 N          10.8995   40.2545   35.8470 N.am      1 SEC2        0.0000 
     14 N          11.9410   39.9870   36.4840 N.am      9 SEL2        0.0000 
     15 N           9.8580   40.5220   35.2100 N.am      5 SEP2        0.0000 
     16 N          12.5950   38.8515   36.0085 N.am      1 SEC2        0.0000 
     17 N          13.2490   37.7160   35.5330 N.am      5 SEP2        0.0000 
     18 Zn         10.4560   41.2850   39.5260 Zn        3 ZIC7        0.0000 
     19 Zn         10.7820   41.2530   38.2440 Zn       11 ZIL7        0.0000 
     20 N           9.2110   41.3170   37.9295 N.am      1 SEC2        0.0000 
     21 N          10.7820   41.2530   38.2440 N.am      9 SEL2        0.0000 
     22 N           7.6400   41.3810   37.6150 N.am      5 SEP2        0.0000 
     23 N           9.1720   39.1120   39.0150 N.am      1 SEC2        0.0000 
     24 N          10.7300   38.7220   38.3250 N.am      9 SEL2        0.0000 
     25 NZ         16.1725   40.3510   39.2870 N.4       2 LYC4        0.0000 
     26 NZ         15.2130   41.6030   38.6790 N.4      10 LYL4        0.0000 
     27 NZ         17.1320   39.0990   39.8950 N.4       6 LYP4        0.0000 
     28 N          16.1725   40.3510   39.2870 N.am      1 SEC2        0.0000 
     29 N          15.2130   41.6030   38.6790 N.am      9 SEL2        0.0000 
     30 N          17.1320   39.0990   39.8950 N.am      5 SEP2        0.0000 
     31 CA         14.6520   38.9890   39.5455 C.3       4 GLC5        0.0000 
     32 CA         13.0660   40.0180   38.9420 C.3      12 GLL5        0.0000 
     33 CA         16.2380   37.9600   40.1490 C.3       8 GLP5        0.0000 
     34 CA         12.4540   44.5215   39.8750 C.3       4 GLC5        0.0000 
     35 CA         13.7390   43.8520   38.2360 C.3      12 GLL5        0.0000 
     36 CA         11.1690   45.1910   41.5140 C.3       8 GLP5        0.0000 
     37 N          11.0415   41.5315   35.3395 N.am      1 SEC2        0.0000 
     38 N          12.2250   42.5410   35.4690 N.am      9 SEL2        0.0000 
     39 CA         18.8730   42.9280   34.6425 C.3       4 GLC5        0.0000 
     40 CA         17.6460   43.4020   36.1970 C.3      12 GLL5        0.0000 
     41 CA         20.1000   42.4540   33.0880 C.3       8 GLP5        0.0000 
     42 CA         16.7355   46.1870   33.9515 C.3       4 GLC5        0.0000 
     43 CA         16.5500   45.2340   35.7270 C.3      12 GLL5        0.0000 
     44 CA         16.9210   47.1400   32.1760 C.3       8 GLP5        0.0000 
     45 CA         12.7405   46.7373   34.4892 C.3       4 GLC5        0.0000 
     46 CA         14.0290   45.7310   35.3510 C.3      12 GLL5        0.0000 
     47 CA         11.6460   48.3820   33.9850 C.3       8 GLP5        0.0000 
     48 CA         18.7625   46.7018   34.4475 C.3       4 GLC5        0.0000 
     49 CA         17.6420   46.0630   35.9070 C.3      12 GLL5        0.0000 
     50 CA         19.2580   47.6300   32.8070 C.3       8 GLP5        0.0000 
@<TRIPOS>BOND
@<TRIPOS>SUBSTRUCTURE
     1 SEC2        4 GROUP        1 X    SEC  0     ROOT SEC X 2
     2 LYC4       10 GROUP        1 X    LYC  0     **** LYC X 4
     3 ZIC7        1 GROUP        1 X    ZIC  0     **** ZIC X 5
     4 GLC5       31 GROUP        1 X    GLC  0     **** GLC X 6
     5 SEP2        6 GROUP        1 Y    SEP  0     ROOT SEP Y 9
     6 LYP4       12 GROUP        1 Y    LYP  0     **** LYP Y 11
     7 ZIP7        3 GROUP        1 Y    ZIP  0     **** ZIP Y 12
     8 GLP5       33 GROUP        1 Y    GLP  0     **** GLP Y 13
     9 SEL2        5 GROUP        1 Z    SEL  0     ROOT SEL Z 16
    10 LYL4       11 GROUP        1 Z    LYL  0     **** LYL Z 18
    11 ZIL7        2 GROUP        1 Z    ZIL  0     **** ZIL Z 19
    12 GLL5       32 GROUP        1 Z    GLL  0     **** GLL Z 20
@<TRIPOS>SET

