#    Name: 1kny_APC_1_ligand
#    Modification time : Mon Apr  7 13:37:39 2014

@<TRIPOS>MOLECULE
1kny_APC_1_ligand
   44    46     1     0     0
SMALL
NO_CHARGES


@<TRIPOS>ATOM
      1 PG         10.5430   38.0230   39.7420 P.3       1 APC556      0.0000 
      2 O1G        10.2290   39.0840   40.7630 O.co2     1 APC556      0.0000 
      3 O2G         9.4170   37.0390   39.6480 O.co2     1 APC556      0.0000 
      4 O3G        11.8920   37.2570   40.1460 O.co2     1 APC556      0.0000 
      5 PB         11.5690   40.0320   37.9440 P.3       1 APC556      0.0000 
      6 O1B        11.9410   39.9870   36.4840 O.co2     1 APC556      0.0000 
      7 O2B        10.7820   41.2530   38.2440 O.co2     1 APC556      0.0000 
      8 O3B        10.7300   38.7220   38.3250 O.3       1 APC556      0.0000 
      9 PA         13.8710   41.5680   39.3480 P.3       1 APC556      0.0000 
     10 O1A        14.0820   41.6600   40.8230 O.co2     1 APC556      0.0000 
     11 O2A        15.2130   41.6030   38.6790 O.co2     1 APC556      0.0000 
     12 C3A        13.0660   40.0180   38.9420 C.3       1 APC556      0.0000 
     13 O5'        12.9910   42.8060   38.8650 O.3       1 APC556      0.0000 
     14 C5'        13.7390   43.8520   38.2360 C.3       1 APC556      0.0000 
     15 C4'        13.0650   44.3070   36.9640 C.3       1 APC556      0.0000 
     16 O4'        13.5950   45.6290   36.6560 O.3       1 APC556      0.0000 
     17 C3'        13.3320   43.4300   35.7410 C.3       1 APC556      0.0000 
     18 O3'        12.2250   42.5410   35.4690 O.3       1 APC556      0.0000 
     19 C2'        13.6410   44.4540   34.6360 C.3       1 APC556      0.0000 
     20 O2'        12.4910   44.7140   33.8190 O.3       1 APC556      0.0000 
     21 C1'        14.0290   45.7310   35.3510 C.3       1 APC556      0.0000 
     22 N9         15.4620   46.0690   35.4040 N.pl3     1 APC556      0.0000 
     23 C8         16.0050   47.3300   35.3060 C.2       1 APC556      0.0000 
     24 N7         17.3070   47.3720   35.5130 N.2       1 APC556      0.0000 
     25 C5         17.6420   46.0630   35.9070 C.ar      1 APC556      0.0000 
     26 C6         18.8920   45.4840   36.2690 C.ar      1 APC556      0.0000 
     27 N6         19.9610   46.0620   36.3880 N.pl3     1 APC556      0.0000 
     28 N1         18.7770   44.1500   36.3310 N.ar      1 APC556      0.0000 
     29 C2         17.6460   43.4020   36.1970 C.ar      1 APC556      0.0000 
     30 N3         16.5050   43.9050   35.9370 N.ar      1 APC556      0.0000 
     31 C4         16.5500   45.2340   35.7270 C.ar      1 APC556      0.0000 
     32 H          13.7851   39.4291   38.4032 H         1 APC556      0.0000 
     33 H          12.8054   39.5525   39.8746 H         1 APC556      0.0000 
     34 H          14.7587   43.5180   37.9832 H         1 APC556      0.0000 
     35 H          13.8420   44.7253   38.9008 H         1 APC556      0.0000 
     36 H          12.0054   44.3800   37.1204 H         1 APC556      0.0000 
     37 H          14.2539   42.8944   35.9441 H         1 APC556      0.0000 
     38 H          14.4762   44.1101   34.0789 H         1 APC556      0.0000 
     39 H          13.4911   46.5617   34.8600 H         1 APC556      0.0000 
     40 H          15.4354   48.1281   35.0944 H         1 APC556      0.0000 
     41 H          17.7612   42.3415   36.3235 H         1 APC556      0.0000 
     42 H          12.4465   41.6957   35.9553 H         1 APC556      0.0000 
     43 H          12.7318   44.3630   32.9141 H         1 APC556      0.0000 
     44 H          20.6373   45.3342   36.5020 H         1 APC556      0.0000 
@<TRIPOS>BOND
     1    2    1 ar   
     2    3    1 ar   
     3    4    1 ar   
     4    8    1 1    
     5    6    5 ar   
     6    7    5 ar   
     7    8    5 1    
     8   12    5 1    
     9   10    9 ar   
    10   11    9 ar   
    11   12    9 1    
    12   13    9 1    
    13   32   12 1    
    14   33   12 1    
    15   14   13 1    
    16   15   14 1    
    17   34   14 1    
    18   35   14 1    
    19   16   15 1    
    20   17   15 1    
    21   36   15 1    
    22   21   16 1    
    23   18   17 1    
    24   19   17 1    
    25   37   17 1    
    26   42   18 1    
    27   20   19 1    
    28   21   19 1    
    29   38   19 1    
    30   43   20 1    
    31   22   21 1    
    32   39   21 1    
    33   23   22 1    
    34   31   22 1    
    35   24   23 2    
    36   40   23 1    
    37   25   24 1    
    38   26   25 ar   
    39   31   25 ar   
    40   27   26 1    
    41   28   26 ar   
    42   44   27 1    
    43   29   28 ar   
    44   30   29 ar   
    45   41   29 1    
    46   31   30 ar   
@<TRIPOS>SUBSTRUCTURE
     1 APC556      1 GROUP   
@<TRIPOS>SET

