#    Name: 2z0y_SAM_1_INTS_M
#    Modification time : Tue Mar 25 09:52:28 2014

@<TRIPOS>MOLECULE
2z0y_SAM_1_INTS_M
   67     0     9     0     0
SMALL
NO_CHARGES


@<TRIPOS>ATOM
      1 CA         33.0480    6.4440   22.8165 C.3       3 GLC5        0.0000 
      2 CA         33.5600    8.4250   23.1320 C.3       9 GLL5        0.0000 
      3 CA         32.5360    4.4630   22.5010 C.3       6 GLP5        0.0000 
      4 CA         31.4680   11.5500   24.9135 C.3       3 GLC5        0.0000 
      5 CA         31.6220   10.0100   23.4720 C.3       9 GLL5        0.0000 
      6 CA         31.3140   13.0900   26.3550 C.3       6 GLP5        0.0000 
      7 CA         30.7855    9.8320   25.3105 C.3       3 GLC5        0.0000 
      8 CA         29.9490    9.6540   27.1490 C.3       6 GLP5        0.0000 
      9 CA         31.9940    9.3330   19.9985 C.3       3 GLC5        0.0000 
     10 CA         30.3320    9.9930   21.0280 C.3       9 GLL5        0.0000 
     11 CA         33.6560    8.6730   18.9690 C.3       6 GLP5        0.0000 
     12 CA         29.0505   10.3910   19.4275 C.3       3 GLC5        0.0000 
     13 CA         27.7690   10.7890   17.8270 C.3       6 GLP5        0.0000 
     14 CA         29.3510    9.3985   25.1545 C.3       3 GLC5        0.0000 
     15 CA         28.7530    9.1430   23.1600 C.3       9 GLL5        0.0000 
     16 CA         26.0745    7.4490   22.9530 C.3       3 GLC5        0.0000 
     17 CA         27.9640    7.8350   23.0780 C.3       9 GLL5        0.0000 
     18 CA         24.1850    7.0630   22.8280 C.3       6 GLP5        0.0000 
     19 CA         26.5690    9.0240   21.8150 C.3       3 GLC5        0.0000 
     20 CA         25.1740   10.2130   20.5520 C.3       6 GLP5        0.0000 
     21 N          26.0065    6.4195   24.8070 N.am      2 SEC2        0.0000 
     22 N          26.5700    5.5930   23.9170 N.am      8 SEL2        0.0000 
     23 N          25.4430    7.2460   25.6970 N.am      5 SEP2        0.0000 
     24 O          26.9910    4.2080   24.2940 O.2       1 ALC1        0.0000 
     25 O          26.5700    5.5930   23.9170 O.2       7 ALL1        0.0000 
     26 O          27.4120    2.8230   24.6710 O.2       4 ALP1        0.0000 
     27 N          30.7130    6.2355   18.4545 N.am      2 SEC2        0.0000 
     28 N          30.4060    5.1920   19.5340 N.am      8 SEL2        0.0000 
     29 N          31.0200    7.2790   17.3750 N.am      5 SEP2        0.0000 
     30 CA         29.4825    5.2455   18.3095 C.3       3 GLC5        0.0000 
     31 CA         30.1560    3.9680   19.9910 C.3       9 GLL5        0.0000 
     32 CA         28.8090    6.5230   16.6280 C.3       6 GLP5        0.0000 
     33 O          32.2815    1.1850   17.9795 O.2       1 ALC1        0.0000 
     34 O          31.6330    2.5610   18.8050 O.2       7 ALL1        0.0000 
     35 O          32.9300   -0.1910   17.1540 O.2       4 ALP1        0.0000 
     36 O          32.1215    3.4465   17.6050 O.2       1 ALC1        0.0000 
     37 O          32.6100    4.3320   16.4050 O.2       4 ALP1        0.0000 
     38 N          29.6265    0.4325   19.5365 N.am      2 SEC2        0.0000 
     39 N          30.1880    1.6490   20.3770 N.am      8 SEL2        0.0000 
     40 N          29.0650   -0.7840   18.6960 N.am      5 SEP2        0.0000 
     41 CA         27.4080    2.0165   21.8870 C.3       3 GLC5        0.0000 
     42 CA         29.2230    1.7860   21.2690 C.3       9 GLL5        0.0000 
     43 CA         25.5930    2.2470   22.5050 C.3       6 GLP5        0.0000 
     44 CA         29.4085    1.4805   23.1060 C.3       3 GLC5        0.0000 
     45 CA         29.5940    1.1750   24.9430 C.3       6 GLP5        0.0000 
     46 CA         30.9545    1.8890   22.0790 C.3       3 GLC5        0.0000 
     47 CA         32.6860    1.9920   22.8890 C.3       6 GLP5        0.0000 
     48 CA         29.4175   -0.3085   20.8425 C.3       3 GLC5        0.0000 
     49 CA         29.6120   -2.4030   20.4160 C.3       6 GLP5        0.0000 
     50 CA         27.8205    1.3590   20.0045 C.3       3 GLC5        0.0000 
     51 CA         26.4180    0.9320   18.7400 C.3       6 GLP5        0.0000 
     52 CA         27.3665    3.1590   21.7180 C.3       3 GLC5        0.0000 
     53 CA         29.1400    4.0710   20.9310 C.3       9 GLL5        0.0000 
     54 CA         27.4820    3.1960   19.9250 C.3       3 GLC5        0.0000 
     55 CA         25.8240    2.3210   18.9190 C.3       6 GLP5        0.0000 
     56 CA         33.4875    8.9110   21.0222 C.3       3 GLC5        0.0000 
     57 CA         27.3166    7.9380   24.9640 C.3       3 GLC5        0.0000 
     58 CA         26.0980    8.2800   26.4790 C.3       6 GLP5        0.0000 
     59 CA         26.6825    3.9907   22.5220 C.3       3 GLC5        0.0000 
     60 CA         27.8480    5.5480   23.2770 C.3       9 GLL5        0.0000 
     61 CA         25.9785    6.3987   22.6835 C.3       3 GLC5        0.0000 
     62 CA         26.5620    5.9577   21.0780 C.3       3 GLC5        0.0000 
     63 CA         27.6960    5.9210   21.8010 C.3       9 GLL5        0.0000 
     64 CA         25.3520    6.1810   19.6170 C.3       6 GLP5        0.0000 
     65 CA         29.0260    2.1790   18.8367 C.3       3 GLC5        0.0000 
     66 CA         27.6350    1.0190   17.8180 C.3       6 GLP5        0.0000 
     67 CA         31.1573    4.0840   21.4471 C.3       3 GLC5        0.0000 
@<TRIPOS>BOND
@<TRIPOS>SUBSTRUCTURE
     1 ALC1       24 GROUP        1 X    ALC  0     ROOT ALC X 1
     2 SEC2       21 GROUP        1 X    SEC  0     **** SEC X 2
     3 GLC5        1 GROUP        1 X    GLC  0     **** GLC X 6
     4 ALP1       26 GROUP        1 Y    ALP  0     ROOT ALP Y 8
     5 SEP2       23 GROUP        1 Y    SEP  0     **** SEP Y 9
     6 GLP5        3 GROUP        1 Y    GLP  0     **** GLP Y 13
     7 ALL1       25 GROUP        1 Z    ALL  0     ROOT ALL Z 15
     8 SEL2       22 GROUP        1 Z    SEL  0     **** SEL Z 16
     9 GLL5        2 GROUP        1 Z    GLL  0     **** GLL Z 20
@<TRIPOS>SET

