#    Name: 2z0y_SAM_1_ligand
#    Modification time : Tue Mar 25 09:52:28 2014

@<TRIPOS>MOLECULE
2z0y_SAM_1_ligand
   50    52     1     0     0
SMALL
NO_CHARGES


@<TRIPOS>ATOM
      1 N          33.4340    7.9720   24.5250 N.4       1 SAM300      0.0000 
      2 CA         33.5600    8.4250   23.1320 C.3       1 SAM300      0.0000 
      3 C          35.0280    8.3340   22.7100 C.2       1 SAM300      0.0000 
      4 O          35.8610    8.9190   23.4350 O.co2     1 SAM300      0.0000 
      5 OXT        35.2850    7.6730   21.6800 O.co2     1 SAM300      0.0000 
      6 CB         33.0780    9.8730   23.0190 C.3       1 SAM300      0.0000 
      7 CG         31.6220   10.0100   23.4720 C.3       1 SAM300      0.0000 
      8 SD         30.4520    8.9950   22.4970 S.3       1 SAM300      0.0000 
      9 CE         30.3320    9.9930   21.0280 C.3       1 SAM300      0.0000 
     10 C5'        28.7530    9.1430   23.1600 C.3       1 SAM300      0.0000 
     11 C4'        27.9640    7.8350   23.0780 C.3       1 SAM300      0.0000 
     12 O4'        27.8040    7.3560   21.7330 O.3       1 SAM300      0.0000 
     13 C3'        28.7120    6.7030   23.7790 C.3       1 SAM300      0.0000 
     14 O3'        28.5390    6.8500   25.1910 O.3       1 SAM300      0.0000 
     15 C2'        27.8480    5.5480   23.2770 C.3       1 SAM300      0.0000 
     16 O2'        26.5700    5.5930   23.9170 O.3       1 SAM300      0.0000 
     17 C1'        27.6960    5.9210   21.8010 C.3       1 SAM300      0.0000 
     18 N9         28.8030    5.3550   20.9980 N.pl3     1 SAM300      0.0000 
     19 C8         29.5780    6.0320   20.1520 C.2       1 SAM300      0.0000 
     20 N7         30.4060    5.1920   19.5340 N.2       1 SAM300      0.0000 
     21 C5         30.1560    3.9680   19.9910 C.ar      1 SAM300      0.0000 
     22 C6         30.6780    2.7100   19.7200 C.ar      1 SAM300      0.0000 
     23 N6         31.6330    2.5610   18.8050 N.pl3     1 SAM300      0.0000 
     24 N1         30.1880    1.6490   20.3770 N.ar      1 SAM300      0.0000 
     25 C2         29.2230    1.7860   21.2690 C.ar      1 SAM300      0.0000 
     26 N3         28.7000    2.9670   21.5510 N.ar      1 SAM300      0.0000 
     27 C4         29.1400    4.0710   20.9310 C.ar      1 SAM300      0.0000 
     28 H          32.9754    7.8123   22.4810 H         1 SAM300      0.0000 
     29 H          33.1628   10.1994   21.9826 H         1 SAM300      0.0000 
     30 H          33.7077   10.5101   23.6399 H         1 SAM300      0.0000 
     31 H          31.2214   10.9995   23.3409 H         1 SAM300      0.0000 
     32 H          31.4465    9.6538   24.4715 H         1 SAM300      0.0000 
     33 H          28.3460    9.9305   22.5556 H         1 SAM300      0.0000 
     34 H          28.9340    9.4750   24.1640 H         1 SAM300      0.0000 
     35 H          27.0173    7.9464   23.5624 H         1 SAM300      0.0000 
     36 H          29.6490    6.6274   23.4221 H         1 SAM300      0.0000 
     37 H          28.3651    4.6644   23.3602 H         1 SAM300      0.0000 
     38 H          26.7597    5.5890   21.4516 H         1 SAM300      0.0000 
     39 H          29.5437    7.0007   20.0068 H         1 SAM300      0.0000 
     40 H          32.2792    1.8140   18.9611 H         1 SAM300      0.0000 
     41 H          31.6181    3.2095   18.0439 H         1 SAM300      0.0000 
     42 H          28.8575    0.9248   21.7730 H         1 SAM300      0.0000 
     43 H          33.7367    7.0255   24.6365 H         1 SAM300      0.0000 
     44 H          33.9818    8.5303   25.1481 H         1 SAM300      0.0000 
     45 H          32.4880    8.0170   24.8460 H         1 SAM300      0.0000 
     46 H          31.1742    9.9642   20.4896 H         1 SAM300      0.0000 
     47 H          29.5913    9.6864   20.4302 H         1 SAM300      0.0000 
     48 H          30.1554   10.9531   21.2447 H         1 SAM300      0.0000 
     49 H          27.5752    6.6413   25.3567 H         1 SAM300      0.0000 
     50 H          26.4669    4.6985   24.3520 H         1 SAM300      0.0000 
@<TRIPOS>BOND
     1    2    1 1    
     2   43    1 1    
     3   44    1 1    
     4   45    1 1    
     5    3    2 1    
     6    6    2 1    
     7   28    2 1    
     8    4    3 ar   
     9    5    3 ar   
    10    7    6 1    
    11   29    6 1    
    12   30    6 1    
    13    8    7 1    
    14   31    7 1    
    15   32    7 1    
    16    9    8 1    
    17   10    8 1    
    18   46    9 1    
    19   47    9 1    
    20   48    9 1    
    21   11   10 1    
    22   33   10 1    
    23   34   10 1    
    24   12   11 1    
    25   13   11 1    
    26   35   11 1    
    27   17   12 1    
    28   14   13 1    
    29   15   13 1    
    30   36   13 1    
    31   49   14 1    
    32   16   15 1    
    33   17   15 1    
    34   37   15 1    
    35   50   16 1    
    36   18   17 1    
    37   38   17 1    
    38   19   18 1    
    39   27   18 1    
    40   20   19 2    
    41   39   19 1    
    42   21   20 1    
    43   22   21 ar   
    44   27   21 ar   
    45   23   22 1    
    46   24   22 ar   
    47   40   23 1    
    48   41   23 1    
    49   25   24 ar   
    50   26   25 ar   
    51   42   25 1    
    52   27   26 ar   
@<TRIPOS>SUBSTRUCTURE
     1 SAM300      1 GROUP   
@<TRIPOS>SET

