#    Name: 1xkd_NAP_2_INTS_M
#    Modification time : Tue Mar 25 10:15:08 2014

@<TRIPOS>MOLECULE
1xkd_NAP_2_INTS_M
   99     0    12     0     0
SMALL
NO_CHARGES


@<TRIPOS>ATOM
      1 N         230.3925   95.9220 -174.7440 N.am      2 SEC2        0.0000 
      2 N         231.0940   96.7430 -173.6940 N.am     10 SEL2        0.0000 
      3 N         229.6910   95.1010 -175.7940 N.am      6 SEP2        0.0000 
      4 N         227.5640   98.1435 -173.8570 N.am      2 SEC2        0.0000 
      5 N         228.7060   97.4400 -173.4280 N.am     10 SEL2        0.0000 
      6 N         226.4220   98.8470 -174.2860 N.am      6 SEP2        0.0000 
      7 CA        232.8055   98.0135 -170.4175 C.3       4 GLC5        0.0000 
      8 CA        231.8370   99.1780 -171.9040 C.3      12 GLL5        0.0000 
      9 CA        233.7740   96.8490 -168.9310 C.3       8 GLP5        0.0000 
     10 CA        233.5320   99.5985 -174.0770 C.3       4 GLC5        0.0000 
     11 CA        232.4010  100.5140 -172.4130 C.3      12 GLL5        0.0000 
     12 CA        234.6630   98.6830 -175.7410 C.3       8 GLP5        0.0000 
     13 N         234.5550   99.9985 -173.1590 N.am      2 SEC2        0.0000 
     14 N         233.1490  100.3970 -173.6270 N.am     10 SEL2        0.0000 
     15 N         235.9610   99.6000 -172.6910 N.am      6 SEP2        0.0000 
     16 CA        229.5580  101.2300 -173.8015 C.3       4 GLC5        0.0000 
     17 CA        231.3710  101.6060 -172.6940 C.3      12 GLL5        0.0000 
     18 CA        227.7450  100.8540 -174.9090 C.3       8 GLP5        0.0000 
     19 CA        233.8005  100.1100 -175.1095 C.3       4 GLC5        0.0000 
     20 CA        232.9380  101.5370 -174.4780 C.3      12 GLL5        0.0000 
     21 CA        231.3900   98.9070 -178.3395 C.3       4 GLC5        0.0000 
     22 CA        231.6740  100.9410 -177.8130 C.3      12 GLL5        0.0000 
     23 CA        231.1060   96.8730 -178.8660 C.3       8 GLP5        0.0000 
     24 CA        231.5770   99.3050 -179.6030 C.3       4 GLC5        0.0000 
     25 CA        231.5410  101.3630 -179.1410 C.3      12 GLL5        0.0000 
     26 CA        231.6130   97.2470 -180.0650 C.3       8 GLP5        0.0000 
     27 CA        232.1855  102.4165 -180.7040 C.3       4 GLC5        0.0000 
     28 CA        232.8300  103.4700 -182.2670 C.3       8 GLP5        0.0000 
     29 O         230.9665  100.9330 -181.4350 O.2       1 ALC1        0.0000 
     30 O         230.9180  100.6350 -180.0480 O.2       9 ALL1        0.0000 
     31 O         231.0150  101.2310 -182.8220 O.2       5 ALP1        0.0000 
     32 N         231.2995  103.2780 -180.6000 N.am      2 SEC2        0.0000 
     33 N         232.0830  102.5580 -179.4850 N.am     10 SEL2        0.0000 
     34 N         230.5160  103.9980 -181.7150 N.am      6 SEP2        0.0000 
     35 CA        233.7715  101.7920 -179.5020 C.3       4 GLC5        0.0000 
     36 CA        232.7170  103.2980 -178.5630 C.3      12 GLL5        0.0000 
     37 CA        234.8260  100.2860 -180.4410 C.3       8 GLP5        0.0000 
     38 CA        230.6380  102.9935 -178.4830 C.3       4 GLC5        0.0000 
     39 CA        228.5590  102.6890 -178.4030 C.3       8 GLP5        0.0000 
     40 CA        232.7735  103.3840 -180.4150 C.3       4 GLC5        0.0000 
     41 CA        233.9945  104.5385 -178.5310 C.3       4 GLC5        0.0000 
     42 CA        235.2720  105.7790 -178.4990 C.3       8 GLP5        0.0000 
     43 CA        225.2170   96.7385 -172.0720 C.3       4 GLC5        0.0000 
     44 CA        226.8770   96.2270 -170.8650 C.3      12 GLL5        0.0000 
     45 CA        223.5570   97.2500 -173.2790 C.3       8 GLP5        0.0000 
     46 CA        225.9480   98.1280 -171.2205 C.3       4 GLC5        0.0000 
     47 CA        225.0190  100.0290 -171.5760 C.3       8 GLP5        0.0000 
     48 CA        225.0540   95.6555 -172.6755 C.3       4 GLC5        0.0000 
     49 CA        225.9340   95.0430 -171.1040 C.3      12 GLL5        0.0000 
     50 CA        224.1740   96.2680 -174.2470 C.3       8 GLP5        0.0000 
     51 N         226.3350   95.2755 -173.6525 N.am      2 SEC2        0.0000 
     52 N         226.2410   94.4070 -172.3330 N.am     10 SEL2        0.0000 
     53 N         226.4290   96.1440 -174.9720 N.am      6 SEP2        0.0000 
     54 CA        227.2470   93.9705 -168.3680 C.3       4 GLC5        0.0000 
     55 CA        225.9940   93.9530 -170.0380 C.3      12 GLL5        0.0000 
     56 CA        228.5000   93.9880 -166.6980 C.3       8 GLP5        0.0000 
     57 N         223.6355   92.5290 -170.2780 N.am      2 SEC2        0.0000 
     58 N         224.6580   93.5690 -169.7620 N.am     10 SEL2        0.0000 
     59 N         222.6130   91.4890 -170.7940 N.am      6 SEP2        0.0000 
     60 O         224.0570   92.8025 -168.8820 O.2       1 ALC1        0.0000 
     61 O         224.6580   93.5690 -169.7620 O.2       9 ALL1        0.0000 
     62 O         223.4560   92.0360 -168.0020 O.2       5 ALP1        0.0000 
     63 N         227.4450   90.9310 -169.1030 N.am      2 SEC2        0.0000 
     64 N         226.4740   91.5550 -170.1600 N.am     10 SEL2        0.0000 
     65 N         228.4160   90.3070 -168.0460 N.am      6 SEP2        0.0000 
     66 CA        227.3545   93.9305 -173.8870 C.3       4 GLC5        0.0000 
     67 CA        226.4150   93.0000 -172.1830 C.3      12 GLL5        0.0000 
     68 CA        228.2940   94.8610 -175.5910 C.3       8 GLP5        0.0000 
     69 CA        225.2945   94.6340 -173.2150 C.3       4 GLC5        0.0000 
     70 O         228.0470   88.6485 -177.5740 O.2       1 ALC1        0.0000 
     71 O         228.3730   89.3230 -176.1070 O.2       9 ALL1        0.0000 
     72 O         227.7210   87.9740 -179.0410 O.2       5 ALP1        0.0000 
     73 CA        230.6300   93.6180 -175.9615 C.3       4 GLC5        0.0000 
     74 CA        229.5270   92.0140 -174.8910 C.3      12 GLL5        0.0000 
     75 CA        231.7330   95.2220 -177.0320 C.3       8 GLP5        0.0000 
     76 NZ        231.3125  105.6195 -170.4285 N.4       3 LYC4        0.0000 
     77 NZ        232.3090  104.4130 -170.9490 N.4      11 LYL4        0.0000 
     78 NZ        230.3160  106.8260 -169.9080 N.4       7 LYP4        0.0000 
     79 N         231.3125  105.6195 -170.4285 N.am      2 SEC2        0.0000 
     80 N         232.3090  104.4130 -170.9490 N.am     10 SEL2        0.0000 
     81 N         230.3160  106.8260 -169.9080 N.am      6 SEP2        0.0000 
     82 N         235.0615  103.4385 -170.6385 N.am      2 SEC2        0.0000 
     83 N         234.7170  104.6250 -171.4680 N.am     10 SEL2        0.0000 
     84 N         235.4060  102.2520 -169.8090 N.am      6 SEP2        0.0000 
     85 N         232.0690  106.4375 -173.3745 N.am      2 SEC2        0.0000 
     86 N         232.9670  105.6380 -173.0130 N.am     10 SEL2        0.0000 
     87 N         231.1710  107.2370 -173.7360 N.am      6 SEP2        0.0000 
     88 CA        230.8310  103.7218 -173.8082 C.3       4 GLC5        0.0000 
     89 CA        232.1830  102.5210 -173.5870 C.3      12 GLL5        0.0000 
     90 CA        229.8850  105.3800 -174.4760 C.3       8 GLP5        0.0000 
     91 CA        233.3338  100.0192 -176.5660 C.3       4 GLC5        0.0000 
     92 CA        232.3350  101.7700 -176.9690 C.3      12 GLL5        0.0000 
     93 CA        233.2167  100.7190 -179.4590 C.3       4 GLC5        0.0000 
     94 CA        230.2651  102.0750 -178.0630 C.3       4 GLC5        0.0000 
     95 CA        226.7995   92.9620 -176.3030 C.3       4 GLC5        0.0000 
     96 CA        228.2350   91.5700 -175.1740 C.3      12 GLL5        0.0000 
     97 CA        225.8930   94.2010 -177.8700 C.3       8 GLP5        0.0000 
     98 CA        228.0000   93.2920 -175.1635 C.3       4 GLC5        0.0000 
     99 CA        228.7439   93.7893 -174.5985 C.3       4 GLC5        0.0000 
@<TRIPOS>BOND
@<TRIPOS>SUBSTRUCTURE
     1 ALC1       29 GROUP        1 X    ALC  0     ROOT ALC X 1
     2 SEC2        1 GROUP        1 X    SEC  0     **** SEC X 2
     3 LYC4       76 GROUP        1 X    LYC  0     **** LYC X 4
     4 GLC5        7 GROUP        1 X    GLC  0     **** GLC X 6
     5 ALP1       31 GROUP        1 Y    ALP  0     ROOT ALP Y 8
     6 SEP2        3 GROUP        1 Y    SEP  0     **** SEP Y 9
     7 LYP4       78 GROUP        1 Y    LYP  0     **** LYP Y 11
     8 GLP5        9 GROUP        1 Y    GLP  0     **** GLP Y 13
     9 ALL1       30 GROUP        1 Z    ALL  0     ROOT ALL Z 15
    10 SEL2        2 GROUP        1 Z    SEL  0     **** SEL Z 16
    11 LYL4       77 GROUP        1 Z    LYL  0     **** LYL Z 18
    12 GLL5        8 GROUP        1 Z    GLL  0     **** GLL Z 20
@<TRIPOS>SET

