#    Name: 1xkd_NAP_2_ligand
#    Modification time : Tue Mar 25 10:15:08 2014

@<TRIPOS>MOLECULE
1xkd_NAP_2_ligand
   73    77     1     0     0
SMALL
NO_CHARGES


@<TRIPOS>ATOM
      1 PA        230.1150   97.3630 -172.7640 P.3       1 NAP1003     0.0000 
      2 O1A       231.0940   96.7430 -173.6940 O.co2     1 NAP1003     0.0000 
      3 O2A       228.7060   97.4400 -173.4280 O.co2     1 NAP1003     0.0000 
      4 O5B       230.5500   98.8750 -172.4050 O.3       1 NAP1003     0.0000 
      5 C5B       231.8370   99.1780 -171.9040 C.3       1 NAP1003     0.0000 
      6 C4B       232.4010  100.5140 -172.4130 C.3       1 NAP1003     0.0000 
      7 O4B       233.1490  100.3970 -173.6270 O.3       1 NAP1003     0.0000 
      8 C3B       231.3710  101.6060 -172.6940 C.3       1 NAP1003     0.0000 
      9 O3B       230.9220  102.2280 -171.5100 O.3       1 NAP1003     0.0000 
     10 C2B       232.1830  102.5210 -173.5870 C.3       1 NAP1003     0.0000 
     11 O2B       233.2440  103.0530 -172.8350 O.3       1 NAP1003     0.0000 
     12 C1B       232.9380  101.5370 -174.4780 C.3       1 NAP1003     0.0000 
     13 N9A       232.3360  101.1520 -175.7350 N.pl3     1 NAP1003     0.0000 
     14 C8A       231.6550   99.9580 -175.9310 C.2       1 NAP1003     0.0000 
     15 N7A       231.2490   99.8050 -177.1570 N.2       1 NAP1003     0.0000 
     16 C5A       231.6740  100.9410 -177.8130 C.ar      1 NAP1003     0.0000 
     17 C6A       231.5410  101.3630 -179.1410 C.ar      1 NAP1003     0.0000 
     18 N6A       230.9180  100.6350 -180.0480 N.pl3     1 NAP1003     0.0000 
     19 N1A       232.0830  102.5580 -179.4850 N.ar      1 NAP1003     0.0000 
     20 C2A       232.7170  103.2980 -178.5630 C.ar      1 NAP1003     0.0000 
     21 N3A       232.8870  102.9750 -177.2840 N.ar      1 NAP1003     0.0000 
     22 C4A       232.3350  101.7700 -176.9690 C.ar      1 NAP1003     0.0000 
     23 O3        230.1430   96.4950 -171.3810 O.3       1 NAP1003     0.0000 
     24 PN        229.3300   96.7360 -169.9840 P.3       1 NAP1003     0.0000 
     25 O1N       228.8930   98.1530 -169.8840 O.co2     1 NAP1003     0.0000 
     26 O2N       230.1330   96.1240 -168.8720 O.co2     1 NAP1003     0.0000 
     27 O5D       228.0190   95.8050 -170.1310 O.3       1 NAP1003     0.0000 
     28 C5D       226.8770   96.2270 -170.8650 C.3       1 NAP1003     0.0000 
     29 C4D       225.9340   95.0430 -171.1040 C.3       1 NAP1003     0.0000 
     30 O4D       226.2410   94.4070 -172.3330 O.3       1 NAP1003     0.0000 
     31 C3D       225.9940   93.9530 -170.0380 C.3       1 NAP1003     0.0000 
     32 O3D       224.6580   93.5690 -169.7620 O.3       1 NAP1003     0.0000 
     33 C2D       226.7810   92.8260 -170.7040 C.3       1 NAP1003     0.0000 
     34 O2D       226.4740   91.5550 -170.1600 O.3       1 NAP1003     0.0000 
     35 C1D       226.4150   93.0000 -172.1830 C.3       1 NAP1003     0.0000 
     36 N1N       227.4560   92.6050 -173.1520 N.pl3     1 NAP1003     0.0000 
     37 C2N       227.1770   91.8760 -174.2980 C.ar      1 NAP1003     0.0000 
     38 C3N       228.2350   91.5700 -175.1740 C.ar      1 NAP1003     0.0000 
     39 C7N       228.1380   90.6180 -176.3290 C.2       1 NAP1003     0.0000 
     40 O7N       227.8690   91.1190 -177.6240 O.2       1 NAP1003     0.0000 
     41 N7N       228.3730   89.3230 -176.1070 N.am      1 NAP1003     0.0000 
     42 C4N       229.5270   92.0140 -174.8910 C.ar      1 NAP1003     0.0000 
     43 C5N       229.7900   92.7580 -173.7430 C.ar      1 NAP1003     0.0000 
     44 C6N       228.7290   93.0490 -172.8950 C.ar      1 NAP1003     0.0000 
     45 P2B       233.2970  104.4560 -172.0530 P.3       1 NAP1003     0.0000 
     46 O1X       232.3090  104.4130 -170.9490 O.co2     1 NAP1003     0.0000 
     47 O2X       234.7170  104.6250 -171.4680 O.co2     1 NAP1003     0.0000 
     48 O3X       232.9670  105.6380 -173.0130 O.co2     1 NAP1003     0.0000 
     49 H         232.5793   98.3912 -172.1707 H         1 NAP1003     0.0000 
     50 H         231.8456   99.2266 -170.7910 H         1 NAP1003     0.0000 
     51 H         233.0736  100.9227 -171.6293 H         1 NAP1003     0.0000 
     52 H         230.6038  101.1666 -173.2890 H         1 NAP1003     0.0000 
     53 H         231.6391  103.1453 -174.1244 H         1 NAP1003     0.0000 
     54 H         233.9377  101.9934 -174.6531 H         1 NAP1003     0.0000 
     55 H         231.5162   99.3167 -175.1809 H         1 NAP1003     0.0000 
     56 H         231.2633  100.7078 -180.9836 H         1 NAP1003     0.0000 
     57 H         230.1571  100.0766 -179.7173 H         1 NAP1003     0.0000 
     58 H         233.1279  104.2480 -178.8962 H         1 NAP1003     0.0000 
     59 H         227.1486   96.6363 -171.8475 H         1 NAP1003     0.0000 
     60 H         226.3079   96.9997 -170.3306 H         1 NAP1003     0.0000 
     61 H         224.9092   95.4186 -171.1316 H         1 NAP1003     0.0000 
     62 H         226.5231   94.3180 -169.2160 H         1 NAP1003     0.0000 
     63 H         227.8299   93.0927 -170.6107 H         1 NAP1003     0.0000 
     64 H         225.4947   92.4991 -172.3723 H         1 NAP1003     0.0000 
     65 H         226.2331   91.5653 -174.5091 H         1 NAP1003     0.0000 
     66 H         228.5752   89.0683 -175.1614 H         1 NAP1003     0.0000 
     67 H         228.3257   88.7239 -176.9063 H         1 NAP1003     0.0000 
     68 H         230.2970   91.7879 -175.5409 H         1 NAP1003     0.0000 
     69 H         230.7302   93.0773 -173.5339 H         1 NAP1003     0.0000 
     70 H         228.9121   93.6211 -172.0413 H         1 NAP1003     0.0000 
     71 H         231.5225  103.0184 -171.3893 H         1 NAP1003     0.0000 
     72 H         224.7192   92.9815 -168.9551 H         1 NAP1003     0.0000 
     73 H         225.6463   91.6988 -169.6176 H         1 NAP1003     0.0000 
@<TRIPOS>BOND
     1    2    1 ar   
     2    3    1 ar   
     3    4    1 1    
     4   23    1 1    
     5    5    4 1    
     6    6    5 1    
     7   49    5 1    
     8   50    5 1    
     9    7    6 1    
    10    8    6 1    
    11   51    6 1    
    12   12    7 1    
    13    9    8 1    
    14   10    8 1    
    15   52    8 1    
    16   71    9 1    
    17   11   10 1    
    18   12   10 1    
    19   53   10 1    
    20   45   11 1    
    21   13   12 1    
    22   54   12 1    
    23   14   13 1    
    24   22   13 1    
    25   15   14 2    
    26   55   14 1    
    27   16   15 1    
    28   17   16 ar   
    29   22   16 ar   
    30   18   17 1    
    31   19   17 ar   
    32   56   18 1    
    33   57   18 1    
    34   20   19 ar   
    35   21   20 ar   
    36   58   20 1    
    37   22   21 ar   
    38   24   23 1    
    39   25   24 ar   
    40   26   24 ar   
    41   27   24 1    
    42   28   27 1    
    43   29   28 1    
    44   59   28 1    
    45   60   28 1    
    46   30   29 1    
    47   31   29 1    
    48   61   29 1    
    49   35   30 1    
    50   32   31 1    
    51   33   31 1    
    52   62   31 1    
    53   72   32 1    
    54   34   33 1    
    55   35   33 1    
    56   63   33 1    
    57   73   34 1    
    58   36   35 1    
    59   64   35 1    
    60   37   36 ar   
    61   44   36 ar   
    62   38   37 ar   
    63   65   37 1    
    64   39   38 1    
    65   42   38 ar   
    66   40   39 2    
    67   41   39 am   
    68   66   41 1    
    69   67   41 1    
    70   43   42 ar   
    71   68   42 1    
    72   44   43 ar   
    73   69   43 1    
    74   70   44 1    
    75   46   45 ar   
    76   47   45 ar   
    77   48   45 ar   
@<TRIPOS>SUBSTRUCTURE
     1 NAP1003     1 GROUP   
@<TRIPOS>SET

