#    Name: 3t4h_MD5_1_INTS_M
#    Modification time : Mon Mar 24 19:06:06 2014

@<TRIPOS>MOLECULE
3t4h_MD5_1_INTS_M
   53     0    12     0     0
SMALL
NO_CHARGES


@<TRIPOS>ATOM
      1 NZ         -4.5550    3.4245   -2.6425 N.4       2 LYC4        0.0000 
      2 NZ         -4.4760    2.3710   -1.5030 N.4      10 LYL4        0.0000 
      3 NZ         -5.3660    3.6850   -4.5560 N.4       6 LYP4        0.0000 
      4 N          -5.1380    2.4455   -2.7905 N.am      1 SEC2        0.0000 
      5 N          -4.4760    2.3710   -1.5030 N.am      9 SEL2        0.0000 
      6 N          -5.8000    2.5200   -4.0780 N.am      5 SEP2        0.0000 
      7 N          -4.5550    3.4245   -2.6425 N.am      1 SEC2        0.0000 
      8 N          -4.6340    4.4780   -3.7820 N.am      5 SEP2        0.0000 
      9 CA         -5.0610    0.1860    1.0315 C.3       4 GLC5        0.0000 
     10 CA         -3.7560    1.6610    0.6620 C.3      12 GLL5        0.0000 
     11 CA         -6.3660   -1.2890    1.4010 C.3       8 GLP5        0.0000 
     12 CA         -5.8620    1.9570    0.1700 C.3       4 GLC5        0.0000 
     13 CA         -7.9680    2.2530   -0.3220 C.3       8 GLP5        0.0000 
     14 Zn         -3.7785    0.3875    4.2690 Zn        3 ZIC7        0.0000 
     15 Zn         -4.0980    0.7110    3.2780 Zn       11 ZIL7        0.0000 
     16 Zn         -3.4590    0.0640    5.2600 Zn        7 ZIP7        0.0000 
     17 Zn         -3.2540   -0.8145    4.6615 Zn        3 ZIC7        0.0000 
     18 Zn         -3.0490   -1.6930    4.0630 Zn       11 ZIL7        0.0000 
     19 N          -2.6850   -2.2600    0.5565 N.am      1 SEC2        0.0000 
     20 N          -2.3020   -1.9900    2.0410 N.am      9 SEL2        0.0000 
     21 N          -3.0680   -2.5300   -0.9280 N.am      5 SEP2        0.0000 
     22 CA         -4.3055    4.8460    3.0515 C.3       4 GLC5        0.0000 
     23 CA         -2.7150    4.0820    3.2620 C.3      12 GLL5        0.0000 
     24 CA         -5.8960    5.6100    2.8410 C.3       8 GLP5        0.0000 
     25 CA         -1.2720    5.4420    3.5935 C.3       4 GLC5        0.0000 
     26 CA          0.1710    6.8020    3.9250 C.3       8 GLP5        0.0000 
     27 CA          0.8540    3.2765    4.5630 C.3       4 GLC5        0.0000 
     28 CA         -1.1060    3.6620    5.1100 C.3      12 GLL5        0.0000 
     29 CA          2.8140    2.8910    4.0160 C.3       8 GLP5        0.0000 
     30 CA          0.8445    2.7095    6.5775 C.3       4 GLC5        0.0000 
     31 CA         -0.7140    3.9290    6.4330 C.3      12 GLL5        0.0000 
     32 CA          2.4030    1.4900    6.7220 C.3       8 GLP5        0.0000 
     33 CA         -0.3145    5.6160    8.9495 C.3       4 GLC5        0.0000 
     34 CA         -1.4410    4.8210    7.2370 C.3      12 GLL5        0.0000 
     35 CA          0.8120    6.4110   10.6620 C.3       8 GLP5        0.0000 
     36 N          -3.5870   -1.1555   -1.0900 N.am      1 SEC2        0.0000 
     37 N          -4.1060    0.2190   -1.2520 N.am      9 SEL2        0.0000 
     38 N          -5.2565   -0.1950   -1.5175 N.am      1 SEC2        0.0000 
     39 N          -6.4070   -0.6090   -1.7830 N.am      5 SEP2        0.0000 
     40 CA         -0.7525    4.1267    0.8425 C.3       4 GLC5        0.0000 
     41 CA         -2.5490    2.6300    0.6760 C.3      12 GLL5        0.0000 
     42 CA          0.6080    5.4450    0.2080 C.3       8 GLP5        0.0000 
     43 CA         -0.6720    2.1528    1.2255 C.3       4 GLC5        0.0000 
     44 CA         -1.6770    2.9870    2.2780 C.3      12 GLL5        0.0000 
     45 CA          0.7690    1.4970    0.9740 C.3       8 GLP5        0.0000 
     46 CA          0.1225    5.5842    6.0177 C.3       4 GLC5        0.0000 
     47 CA          1.1550    7.3730    6.2640 C.3       8 GLP5        0.0000 
     48 CA         -3.5075    3.2840    5.0034 C.3       4 GLC5        0.0000 
     49 CA         -5.2270    2.6420    5.4940 C.3       8 GLP5        0.0000 
     50 CA         -0.4232    6.2550    6.6125 C.3       4 GLC5        0.0000 
     51 CA         -2.5620    5.4530    6.6850 C.3      12 GLL5        0.0000 
     52 CA         -4.2212    4.3993    6.2390 C.3       4 GLC5        0.0000 
     53 CA         -5.6950    3.4850    6.4460 C.3       8 GLP5        0.0000 
@<TRIPOS>BOND
@<TRIPOS>SUBSTRUCTURE
     1 SEC2        4 GROUP        1 X    SEC  0     ROOT SEC X 2
     2 LYC4        1 GROUP        1 X    LYC  0     **** LYC X 4
     3 ZIC7       14 GROUP        1 X    ZIC  0     **** ZIC X 5
     4 GLC5        9 GROUP        1 X    GLC  0     **** GLC X 6
     5 SEP2        6 GROUP        1 Y    SEP  0     ROOT SEP Y 9
     6 LYP4        3 GROUP        1 Y    LYP  0     **** LYP Y 11
     7 ZIP7       16 GROUP        1 Y    ZIP  0     **** ZIP Y 12
     8 GLP5       11 GROUP        1 Y    GLP  0     **** GLP Y 13
     9 SEL2        5 GROUP        1 Z    SEL  0     ROOT SEL Z 16
    10 LYL4        2 GROUP        1 Z    LYL  0     **** LYL Z 18
    11 ZIL7       15 GROUP        1 Z    ZIL  0     **** ZIL Z 19
    12 GLL5       10 GROUP        1 Z    GLL  0     **** GLL Z 20
@<TRIPOS>SET

