#    Name: 3t4h_MD5_1_ligand
#    Modification time : Mon Mar 24 19:06:06 2014

@<TRIPOS>MOLECULE
3t4h_MD5_1_ligand
   32    32     1     0     0
SMALL
NO_CHARGES


@<TRIPOS>ATOM
      1 C          -4.1580    1.3920   -0.8140 C.2       1 MD5217      0.0000 
      2 N          -3.2520    0.3820    1.1900 N.am      1 MD5217      0.0000 
      3 OXT        -4.4760    2.3710   -1.5030 O.co2     1 MD5217      0.0000 
      4 CA         -3.7560    1.6610    0.6620 C.3       1 MD5217      0.0000 
      5 CB         -2.5490    2.6300    0.6760 C.3       1 MD5217      0.0000 
      6 CAA        -2.8990   -1.2870    2.8840 C.2       1 MD5217      0.0000 
      7 CAB        -3.4690    0.0420    2.4750 C.2       1 MD5217      0.0000 
      8 OAH        -4.0980    0.7110    3.2780 O.2       1 MD5217      0.0000 
      9 OAI        -3.0490   -1.6930    4.0630 O.co2     1 MD5217      0.0000 
     10 OAJ        -2.3020   -1.9900    2.0410 O.co2     1 MD5217      0.0000 
     11 SAL        -1.6770    2.9870    2.2780 S.3       1 MD5217      0.0000 
     12 CAM        -2.7150    4.0820    3.2620 C.3       1 MD5217      0.0000 
     13 CAN        -2.2250    4.2980    4.5690 C.ar      1 MD5217      0.0000 
     14 CAO        -1.1060    3.6620    5.1100 C.ar      1 MD5217      0.0000 
     15 CAP        -0.7140    3.9290    6.4330 C.ar      1 MD5217      0.0000 
     16 CAQ        -1.4410    4.8210    7.2370 C.ar      1 MD5217      0.0000 
     17 CAR        -2.5620    5.4530    6.6850 C.ar      1 MD5217      0.0000 
     18 CAS        -2.9330    5.1740    5.3790 C.ar      1 MD5217      0.0000 
     19 NAT        -3.3610    6.3270    7.3040 N.pl3     1 MD5217      0.0000 
     20 OAU        -3.1520    6.6820    8.5050 O.2       1 MD5217      0.0000 
     21 OAV        -4.4630    6.8510    6.5510 O.2       1 MD5217      0.0000 
     22 O          -4.1060    0.2190   -1.2520 O.co2     1 MD5217      0.0000 
     23 H          -2.7392   -0.2150    0.5312 H         1 MD5217      0.0000 
     24 H          -4.5392    2.0366    1.1954 H         1 MD5217      0.0000 
     25 H          -2.8095    3.6453    0.3437 H         1 MD5217      0.0000 
     26 H          -1.7134    2.2842    0.0504 H         1 MD5217      0.0000 
     27 H          -3.6789    3.5673    3.1916 H         1 MD5217      0.0000 
     28 H          -2.7535    4.9637    2.6138 H         1 MD5217      0.0000 
     29 H          -0.5663    2.9981    4.5443 H         1 MD5217      0.0000 
     30 H           0.1205    3.4622    6.8183 H         1 MD5217      0.0000 
     31 H          -1.1601    5.0021    8.1935 H         1 MD5217      0.0000 
     32 H          -3.7842    5.6443    4.9863 H         1 MD5217      0.0000 
@<TRIPOS>BOND
     1    3    1 ar   
     2    4    1 1    
     3   22    1 ar   
     4    4    2 1    
     5    7    2 am   
     6   23    2 1    
     7    5    4 1    
     8   24    4 1    
     9   11    5 1    
    10   25    5 1    
    11   26    5 1    
    12    7    6 1    
    13    9    6 ar   
    14   10    6 ar   
    15    8    7 2    
    16   12   11 1    
    17   13   12 1    
    18   27   12 1    
    19   28   12 1    
    20   14   13 ar   
    21   18   13 ar   
    22   15   14 ar   
    23   29   14 1    
    24   16   15 ar   
    25   30   15 1    
    26   17   16 ar   
    27   31   16 1    
    28   18   17 ar   
    29   19   17 1    
    30   32   18 1    
    31   20   19 2    
    32   21   19 2    
@<TRIPOS>SUBSTRUCTURE
     1 MD5217      1 GROUP   
@<TRIPOS>SET

