#    Name: 3vuf_ADP_1_INTS_M
#    Modification time : Tue Mar 25 01:37:43 2014

@<TRIPOS>MOLECULE
3vuf_ADP_1_INTS_M
   37     0    12     0     0
SMALL
NO_CHARGES


@<TRIPOS>ATOM
      1 N         -55.4885  -14.8235   40.7860 N.am      2 SEC2        0.0000 
      2 N         -54.1330  -15.3540   40.2130 N.am     10 SEL2        0.0000 
      3 N         -56.8440  -14.2930   41.3590 N.am      6 SEP2        0.0000 
      4 NZ        -51.0575  -13.2125   39.9380 N.4       3 LYC4        0.0000 
      5 NZ        -52.1810  -13.7830   40.5970 N.4      11 LYL4        0.0000 
      6 NZ        -49.9780  -11.3150   39.1650 N.4       7 LYP4        0.0000 
      7 N         -51.6110  -12.2095   40.0975 N.am      2 SEC2        0.0000 
      8 N         -52.1810  -13.7830   40.5970 N.am     10 SEL2        0.0000 
      9 N         -51.0410  -10.6360   39.5980 N.am      6 SEP2        0.0000 
     10 N         -51.0575  -13.2125   39.9380 N.am      2 SEC2        0.0000 
     11 N         -49.9340  -12.6420   39.2790 N.am      6 SEP2        0.0000 
     12 N         -53.4725  -11.9760   35.8285 N.am      2 SEC2        0.0000 
     13 N         -54.2550  -11.8680   37.0070 N.am     10 SEL2        0.0000 
     14 N         -52.6900  -12.0840   34.6500 N.am      6 SEP2        0.0000 
     15 CA        -53.2615   -9.6200   37.4800 C.3       4 GLC5        0.0000 
     16 CA        -54.9560  -10.6220   36.8120 C.3      12 GLL5        0.0000 
     17 CA        -51.5670   -8.6180   38.1480 C.3       8 GLP5        0.0000 
     18 N         -60.6185  -10.0390   35.3830 N.am      2 SEC2        0.0000 
     19 N         -59.5910   -9.2450   36.2880 N.am     10 SEL2        0.0000 
     20 N         -61.6460  -10.8330   34.4780 N.am      6 SEP2        0.0000 
     21 CA        -57.2325   -2.9340   35.2365 C.3       4 GLC5        0.0000 
     22 CA        -56.4980   -3.6110   37.0730 C.3      12 GLL5        0.0000 
     23 CA        -57.9670   -2.2570   33.4000 C.3       8 GLP5        0.0000 
     24 CA        -56.7325   -2.0250   38.3195 C.3       4 GLC5        0.0000 
     25 CA        -56.9670   -0.4390   39.5660 C.3       8 GLP5        0.0000 
     26 O         -55.5055   -1.5310   37.0015 O.2       1 ALC1        0.0000 
     27 O         -55.5070   -2.7370   36.7680 O.2       9 ALL1        0.0000 
     28 O         -55.5040   -0.3250   37.2350 O.2       5 ALP1        0.0000 
     29 CA        -57.8430   -2.2595   38.6365 C.3       4 GLC5        0.0000 
     30 CA        -58.7190   -4.0800   37.7070 C.3      12 GLL5        0.0000 
     31 CA        -60.5595   -2.9840   37.8100 C.3       4 GLC5        0.0000 
     32 CA        -62.4000   -1.8880   37.9130 C.3       8 GLP5        0.0000 
     33 CA        -60.1400   -4.0745   35.9695 C.3       4 GLC5        0.0000 
     34 CA        -61.5610   -4.0690   34.2320 C.3       8 GLP5        0.0000 
     35 CA        -58.2318   -9.8122   34.5863 C.3       4 GLC5        0.0000 
     36 CA        -58.1480   -9.2010   36.2980 C.3      12 GLL5        0.0000 
     37 CA        -58.6450   -9.7290   32.9020 C.3       8 GLP5        0.0000 
@<TRIPOS>BOND
@<TRIPOS>SUBSTRUCTURE
     1 ALC1       26 GROUP        1 X    ALC  0     ROOT ALC X 1
     2 SEC2        1 GROUP        1 X    SEC  0     **** SEC X 2
     3 LYC4        4 GROUP        1 X    LYC  0     **** LYC X 4
     4 GLC5       15 GROUP        1 X    GLC  0     **** GLC X 6
     5 ALP1       28 GROUP        1 Y    ALP  0     ROOT ALP Y 8
     6 SEP2        3 GROUP        1 Y    SEP  0     **** SEP Y 9
     7 LYP4        6 GROUP        1 Y    LYP  0     **** LYP Y 11
     8 GLP5       17 GROUP        1 Y    GLP  0     **** GLP Y 13
     9 ALL1       27 GROUP        1 Z    ALL  0     ROOT ALL Z 15
    10 SEL2        2 GROUP        1 Z    SEL  0     **** SEL Z 16
    11 LYL4        5 GROUP        1 Z    LYL  0     **** LYL Z 18
    12 GLL5       16 GROUP        1 Z    GLL  0     **** GLL Z 20
@<TRIPOS>SET

