#    Name: 3vuf_ADP_1_ligand
#    Modification time : Tue Mar 25 01:37:43 2014

@<TRIPOS>MOLECULE
3vuf_ADP_1_ligand
   39    41     1     0     0
SMALL
NO_CHARGES


@<TRIPOS>ATOM
      1 PB        -52.8470  -14.7760   39.6500 P.3       1 ADP701      0.0000 
      2 O1B       -51.9150  -15.8500   39.1040 O.co2     1 ADP701      0.0000 
      3 O2B       -54.1330  -15.3540   40.2130 O.co2     1 ADP701      0.0000 
      4 O3B       -52.1810  -13.7830   40.5970 O.co2     1 ADP701      0.0000 
      5 PA        -54.5090  -12.8240   38.2980 P.3       1 ADP701      0.0000 
      6 O1A       -55.8100  -13.5880   38.0550 O.co2     1 ADP701      0.0000 
      7 O2A       -54.3490  -11.9510   39.5330 O.co2     1 ADP701      0.0000 
      8 O3A       -53.2770  -13.8930   38.3340 O.3       1 ADP701      0.0000 
      9 O5'       -54.2550  -11.8680   37.0070 O.3       1 ADP701      0.0000 
     10 C5'       -54.9560  -10.6220   36.8120 C.3       1 ADP701      0.0000 
     11 C4'       -56.4180  -10.6130   37.3400 C.3       1 ADP701      0.0000 
     12 O4'       -56.7060   -9.4790   38.1960 O.3       1 ADP701      0.0000 
     13 C3'       -57.4890  -10.5900   36.2430 C.3       1 ADP701      0.0000 
     14 O3'       -58.4230  -11.6610   36.4610 O.3       1 ADP701      0.0000 
     15 C2'       -58.1480   -9.2010   36.2980 C.3       1 ADP701      0.0000 
     16 O2'       -59.5910   -9.2450   36.2880 O.3       1 ADP701      0.0000 
     17 C1'       -57.5980   -8.5270   37.5640 C.3       1 ADP701      0.0000 
     18 N9        -56.8600   -7.2380   37.2960 N.pl3     1 ADP701      0.0000 
     19 C8        -55.5500   -7.1440   36.9350 C.2       1 ADP701      0.0000 
     20 N7        -55.1490   -5.8530   36.7710 N.2       1 ADP701      0.0000 
     21 C5        -56.2260   -5.0760   37.0420 C.ar      1 ADP701      0.0000 
     22 C6        -56.4980   -3.6110   37.0730 C.ar      1 ADP701      0.0000 
     23 N6        -55.5070   -2.7370   36.7680 N.pl3     1 ADP701      0.0000 
     24 N1        -57.7460   -3.1920   37.4070 N.ar      1 ADP701      0.0000 
     25 C2        -58.7190   -4.0800   37.7070 C.ar      1 ADP701      0.0000 
     26 N3        -58.5450   -5.4180   37.7070 N.ar      1 ADP701      0.0000 
     27 C4        -57.3470   -5.9820   37.3900 C.ar      1 ADP701      0.0000 
     28 H         -55.0009  -10.3494   35.7345 H         1 ADP701      0.0000 
     29 H         -54.4278   -9.7801   37.3116 H         1 ADP701      0.0000 
     30 H         -56.5758  -11.5384   37.9149 H         1 ADP701      0.0000 
     31 H         -56.9812  -10.6803   35.2980 H         1 ADP701      0.0000 
     32 H         -57.7578   -8.6334   35.4506 H         1 ADP701      0.0000 
     33 H         -58.4367   -8.3295   38.2237 H         1 ADP701      0.0000 
     34 H         -54.9587   -7.9232   36.8069 H         1 ADP701      0.0000 
     35 H         -54.5752   -3.0423   36.9642 H         1 ADP701      0.0000 
     36 H         -55.7957   -1.8645   36.3739 H         1 ADP701      0.0000 
     37 H         -59.6853   -3.6987   37.9597 H         1 ADP701      0.0000 
     38 H         -59.3116  -11.2131   36.5602 H         1 ADP701      0.0000 
     39 H         -59.8606   -9.1059   37.2408 H         1 ADP701      0.0000 
@<TRIPOS>BOND
     1    2    1 ar   
     2    3    1 ar   
     3    4    1 ar   
     4    8    1 1    
     5    6    5 ar   
     6    7    5 ar   
     7    8    5 1    
     8    9    5 1    
     9   10    9 1    
    10   11   10 1    
    11   28   10 1    
    12   29   10 1    
    13   12   11 1    
    14   13   11 1    
    15   30   11 1    
    16   17   12 1    
    17   14   13 1    
    18   15   13 1    
    19   31   13 1    
    20   38   14 1    
    21   16   15 1    
    22   17   15 1    
    23   32   15 1    
    24   39   16 1    
    25   18   17 1    
    26   33   17 1    
    27   19   18 1    
    28   27   18 1    
    29   20   19 2    
    30   34   19 1    
    31   21   20 1    
    32   22   21 ar   
    33   27   21 ar   
    34   23   22 1    
    35   24   22 ar   
    36   35   23 1    
    37   36   23 1    
    38   25   24 ar   
    39   26   25 ar   
    40   37   25 1    
    41   27   26 ar   
@<TRIPOS>SUBSTRUCTURE
     1 ADP701      1 GROUP   
@<TRIPOS>SET

