#    Name: 2qqt_AIN_1_INTS_M
#    Modification time : Mon Mar 24 22:35:58 2014

@<TRIPOS>MOLECULE
2qqt_AIN_1_INTS_M
   16     0     3     0     0
SMALL
NO_CHARGES


@<TRIPOS>ATOM
      1 CA          4.5840    7.5345   34.6220 C.3       1 GLC5        0.0000 
      2 CA          4.3120    6.5410   32.8000 C.3       3 GLL5        0.0000 
      3 CA          4.8560    8.5280   36.4440 C.3       2 GLP5        0.0000 
      4 CA          5.1085    5.9525   29.5025 C.3       1 GLC5        0.0000 
      5 CA          4.3650    4.4600   30.6940 C.3       3 GLL5        0.0000 
      6 CA          5.8520    7.4450   28.3110 C.3       2 GLP5        0.0000 
      7 CA          3.7395    1.1550   28.0710 C.3       1 GLC5        0.0000 
      8 CA          5.0790    1.5710   28.7580 C.3       3 GLL5        0.0000 
      9 CA          2.4000    0.7390   27.3840 C.3       2 GLP5        0.0000 
     10 CA          2.3672    6.2263   33.0968 C.3       1 GLC5        0.0000 
     11 CA          3.0460    4.9680   31.2120 C.3       3 GLL5        0.0000 
     12 CA          1.6600    6.9400   34.4620 C.3       2 GLP5        0.0000 
     13 CA          3.9398    6.9325   33.8002 C.3       1 GLC5        0.0000 
     14 CA          2.9250    7.5290   35.0220 C.3       2 GLP5        0.0000 
     15 CA          5.7280    6.5185   30.0775 C.3       1 GLC5        0.0000 
     16 CA          5.5970    6.1310   32.3570 C.3       3 GLL5        0.0000 
@<TRIPOS>BOND
@<TRIPOS>SUBSTRUCTURE
     1 GLC5        1 GROUP        1 X    GLC  0     ROOT GLC X 6
     2 GLP5        3 GROUP        1 Y    GLP  0     ROOT GLP Y 13
     3 GLL5        2 GROUP        1 Z    GLL  0     ROOT GLL Z 20
@<TRIPOS>SET

