#    Name: 2qqt_AIN_1_ligand
#    Modification time : Mon Mar 24 22:35:58 2014

@<TRIPOS>MOLECULE
2qqt_AIN_1_ligand
   20    20     1     0     0
SMALL
NO_CHARGES


@<TRIPOS>ATOM
      1 O1          0.6600    5.1410   31.2450 O.co2     1 AIN596      0.0000 
      2 C7          1.6780    4.6170   30.7190 C.2       1 AIN596      0.0000 
      3 O2          1.4920    3.7410   29.9290 O.co2     1 AIN596      0.0000 
      4 C3          3.0460    4.9680   31.2120 C.ar      1 AIN596      0.0000 
      5 C4          3.1030    6.0570   32.2510 C.ar      1 AIN596      0.0000 
      6 C5          4.3120    6.5410   32.8000 C.ar      1 AIN596      0.0000 
      7 C6          5.5970    6.1310   32.3570 C.ar      1 AIN596      0.0000 
      8 C1          5.6110    5.0530   31.3310 C.ar      1 AIN596      0.0000 
      9 C2          4.3650    4.4600   30.6940 C.ar      1 AIN596      0.0000 
     10 O3          4.3850    3.4440   29.7280 O.3       1 AIN596      0.0000 
     11 C8          5.2340    2.9780   28.5740 C.2       1 AIN596      0.0000 
     12 O4          5.7890    3.3760   27.6240 O.2       1 AIN596      0.0000 
     13 C9          5.0790    1.5710   28.7580 C.3       1 AIN596      0.0000 
     14 H           2.1967    6.4433   32.5513 H         1 AIN596      0.0000 
     15 H           4.2600    7.2403   33.5761 H         1 AIN596      0.0000 
     16 H           6.4353    6.5101   32.6831 H         1 AIN596      0.0000 
     17 H           6.5133    4.6779   31.0260 H         1 AIN596      0.0000 
     18 H           5.7072    1.0495   28.1806 H         1 AIN596      0.0000 
     19 H           5.2556    1.2985   29.7038 H         1 AIN596      0.0000 
     20 H           4.1533    1.2668   28.5333 H         1 AIN596      0.0000 
@<TRIPOS>BOND
     1    2    1 ar   
     2    3    2 ar   
     3    4    2 1    
     4    5    4 ar   
     5    9    4 ar   
     6    6    5 ar   
     7   14    5 1    
     8    7    6 ar   
     9   15    6 1    
    10    8    7 ar   
    11   16    7 1    
    12    9    8 ar   
    13   17    8 1    
    14   10    9 1    
    15   11   10 1    
    16   12   11 2    
    17   13   11 1    
    18   18   13 1    
    19   19   13 1    
    20   20   13 1    
@<TRIPOS>SUBSTRUCTURE
     1 AIN596      1 GROUP   
@<TRIPOS>SET

