#    Name: 1geg_NAD_8_INTS_M
#    Modification time : Tue Mar 25 03:02:59 2014

@<TRIPOS>MOLECULE
1geg_NAD_8_INTS_M
   97     0     9     0     0
SMALL
NO_CHARGES


@<TRIPOS>ATOM
      1 N          11.9660  -44.7480   46.1090 N.am      2 SEC2        0.0000 
      2 N          10.7600  -44.0320   46.5950 N.am      8 SEL2        0.0000 
      3 N          13.1720  -45.4640   45.6230 N.am      5 SEP2        0.0000 
      4 CA         13.2955  -39.5525   42.7530 C.3       3 GLC5        0.0000 
      5 CA         13.4750  -40.6880   44.2430 C.3       9 GLL5        0.0000 
      6 CA         13.1160  -38.4170   41.2630 C.3       6 GLP5        0.0000 
      7 O          14.8445  -41.4680   41.7500 O.2       1 ALC1        0.0000 
      8 O          14.4870  -42.3170   42.7850 O.2       7 ALL1        0.0000 
      9 O          15.2020  -40.6190   40.7150 O.2       4 ALP1        0.0000 
     10 O          17.1655  -41.0450   42.5275 O.2       1 ALC1        0.0000 
     11 O          17.0170  -41.4670   43.7380 O.2       7 ALL1        0.0000 
     12 O          17.3140  -40.6230   41.3170 O.2       4 ALP1        0.0000 
     13 CA         14.2885  -38.9770   42.6580 C.3       3 GLC5        0.0000 
     14 CA         15.4610  -39.5370   44.0530 C.3       9 GLL5        0.0000 
     15 CA         19.5975  -34.5985   43.7635 C.3       3 GLC5        0.0000 
     16 CA         18.1920  -35.5880   45.0020 C.3       9 GLL5        0.0000 
     17 CA         21.0030  -33.6090   42.5250 C.3       6 GLP5        0.0000 
     18 CA         17.2790  -34.0165   44.7635 C.3       3 GLC5        0.0000 
     19 CA         16.3660  -32.4450   44.5250 C.3       6 GLP5        0.0000 
     20 O          19.9535  -33.9565   45.5520 O.2       1 ALC1        0.0000 
     21 O          18.8400  -34.8450   45.8790 O.2       7 ALL1        0.0000 
     22 O          21.0670  -33.0680   45.2250 O.2       4 ALP1        0.0000 
     23 N          18.5605  -33.8115   43.3045 N.am      2 SEC2        0.0000 
     24 N          18.2360  -35.1670   43.6980 N.am      8 SEL2        0.0000 
     25 N          18.8850  -32.4560   42.9110 N.am      5 SEP2        0.0000 
     26 CA         17.4085  -37.1550   40.9795 C.3       3 GLC5        0.0000 
     27 CA         17.5700  -35.9280   42.7620 C.3       9 GLL5        0.0000 
     28 CA         17.2470  -38.3820   39.1970 C.3       6 GLP5        0.0000 
     29 CA         18.9510  -37.1060   42.8385 C.3       3 GLC5        0.0000 
     30 CA         20.3320  -38.2840   42.9150 C.3       6 GLP5        0.0000 
     31 CA         19.2865  -34.7685   42.6435 C.3       3 GLC5        0.0000 
     32 CA         16.8000  -34.2215   42.3990 C.3       3 GLC5        0.0000 
     33 CA         16.0300  -32.5150   42.0360 C.3       6 GLP5        0.0000 
     34 CA         15.6205  -35.6440   43.2415 C.3       3 GLC5        0.0000 
     35 CA         13.6710  -35.3600   43.7210 C.3       6 GLP5        0.0000 
     36 N          17.9200  -37.7465   41.8975 N.am      2 SEC2        0.0000 
     37 N          16.8730  -37.0340   42.9040 N.am      8 SEL2        0.0000 
     38 N          18.9670  -38.4590   40.8910 N.am      5 SEP2        0.0000 
     39 N           7.6820  -42.4650   44.1910 N.am      2 SEC2        0.0000 
     40 N           8.4860  -41.9440   45.2890 N.am      8 SEL2        0.0000 
     41 N           6.8780  -42.9860   43.0930 N.am      5 SEP2        0.0000 
     42 N           7.7035  -43.5830   48.0350 N.am      2 SEC2        0.0000 
     43 N           7.7870  -42.4070   47.6360 N.am      8 SEL2        0.0000 
     44 N           7.6200  -44.7590   48.4340 N.am      5 SEP2        0.0000 
     45 CA          6.8550  -40.0745   44.7150 C.3       3 GLC5        0.0000 
     46 CA          8.2050  -39.1450   45.8160 C.3       9 GLL5        0.0000 
     47 CA          5.5050  -41.0040   43.6140 C.3       6 GLP5        0.0000 
     48 CA          6.1025  -39.2835   46.1330 C.3       3 GLC5        0.0000 
     49 CA          7.7540  -37.7910   46.3190 C.3       9 GLL5        0.0000 
     50 CA          4.4510  -40.7760   45.9470 C.3       6 GLP5        0.0000 
     51 CA         10.4490  -36.4530   47.7490 C.3       3 GLC5        0.0000 
     52 CA          8.5810  -37.1340   47.4310 C.3       9 GLL5        0.0000 
     53 CA         12.3170  -35.7720   48.0670 C.3       6 GLP5        0.0000 
     54 CA          9.5045  -38.2865   48.8250 C.3       3 GLC5        0.0000 
     55 CA         10.4280  -39.4390   50.2190 C.3       6 GLP5        0.0000 
     56 N           8.2315  -34.5600   48.1710 N.am      2 SEC2        0.0000 
     57 N           8.5910  -35.7060   47.2600 N.am      8 SEL2        0.0000 
     58 N           7.8720  -33.4140   49.0820 N.am      5 SEP2        0.0000 
     59 O           9.0965  -35.8170   46.0110 O.2       1 ALC1        0.0000 
     60 O           8.5910  -35.7060   47.2600 O.2       7 ALL1        0.0000 
     61 O           9.6020  -35.9280   44.7620 O.2       4 ALP1        0.0000 
     62 CA          7.6125  -35.5845   49.5865 C.3       3 GLC5        0.0000 
     63 CA          7.8230  -37.5380   48.6890 C.3       9 GLL5        0.0000 
     64 CA          7.4020  -33.6310   50.4840 C.3       6 GLP5        0.0000 
     65 N           7.2650  -36.5795   50.9040 N.am      2 SEC2        0.0000 
     66 N           8.0780  -36.6130   49.7670 N.am      8 SEL2        0.0000 
     67 N           6.4520  -36.5460   52.0410 N.am      5 SEP2        0.0000 
     68 CA          5.4295  -39.1275   47.0765 C.3       3 GLC5        0.0000 
     69 CA          6.4080  -37.4790   48.2060 C.3       9 GLL5        0.0000 
     70 N           3.0815  -43.2640   50.8455 N.am      2 SEC2        0.0000 
     71 N           4.1460  -42.4400   51.0410 N.am      8 SEL2        0.0000 
     72 N           2.0170  -44.0880   50.6500 N.am      5 SEP2        0.0000 
     73 CA          2.9530  -37.1025   48.7300 C.3       3 GLC5        0.0000 
     74 CA          4.4030  -37.5960   49.6260 C.3       9 GLL5        0.0000 
     75 CA          1.5030  -36.6090   47.8340 C.3       6 GLP5        0.0000 
     76 CA         13.2990  -43.0320   43.7797 C.3       3 GLC5        0.0000 
     77 CA         12.5770  -44.8460   43.3840 C.3       6 GLP5        0.0000 
     78 CA         15.4172  -36.2245   44.2335 C.3       3 GLC5        0.0000 
     79 CA         17.4710  -36.7640   45.2800 C.3       9 GLL5        0.0000 
     80 CA         17.9633  -35.5460   47.2160 C.3       3 GLC5        0.0000 
     81 CA         18.0950  -34.9160   49.2910 C.3       6 GLP5        0.0000 
     82 CA         18.8379  -37.5395   43.7957 C.3       3 GLC5        0.0000 
     83 CA          7.1988  -35.7567   46.0640 C.3       3 GLC5        0.0000 
     84 CA          6.2300  -34.0510   45.2530 C.3       6 GLP5        0.0000 
     85 CA          7.9953  -38.8197   49.6418 C.3       3 GLC5        0.0000 
     86 CA          8.8750  -40.1310   50.8360 C.3       6 GLP5        0.0000 
     87 CA          4.8127  -40.4050   47.7955 C.3       3 GLC5        0.0000 
     88 CA          5.6420  -39.6580   49.2030 C.3       9 GLL5        0.0000 
     89 CA          7.0248  -40.0825   50.2400 C.3       3 GLC5        0.0000 
     90 CA          2.9973  -41.2650   49.3975 C.3       3 GLC5        0.0000 
     91 CA          3.5200  -39.6760   50.6770 C.3       9 GLL5        0.0000 
     92 CA          1.8810  -42.4870   48.4140 C.3       6 GLP5        0.0000 
     93 CA          3.5362  -36.4273   51.0020 C.3       3 GLC5        0.0000 
     94 CA          3.5200  -38.2210   50.3680 C.3       9 GLL5        0.0000 
     95 CA          3.1110  -34.9460   52.0070 C.3       6 GLP5        0.0000 
     96 CA          2.4634  -39.0255   49.2097 C.3       3 GLC5        0.0000 
     97 CA          1.1100  -38.9190   48.0450 C.3       6 GLP5        0.0000 
@<TRIPOS>BOND
@<TRIPOS>SUBSTRUCTURE
     1 ALC1        7 GROUP        1 X    ALC  0     ROOT ALC X 1
     2 SEC2        1 GROUP        1 X    SEC  0     **** SEC X 2
     3 GLC5        4 GROUP        1 X    GLC  0     **** GLC X 6
     4 ALP1        9 GROUP        1 Y    ALP  0     ROOT ALP Y 8
     5 SEP2        3 GROUP        1 Y    SEP  0     **** SEP Y 9
     6 GLP5        6 GROUP        1 Y    GLP  0     **** GLP Y 13
     7 ALL1        8 GROUP        1 Z    ALL  0     ROOT ALL Z 15
     8 SEL2        2 GROUP        1 Z    SEL  0     **** SEL Z 16
     9 GLL5        5 GROUP        1 Z    GLL  0     **** GLL Z 20
@<TRIPOS>SET

