#    Name: 1geg_NAD_8_ligand
#    Modification time : Tue Mar 25 03:02:59 2014

@<TRIPOS>MOLECULE
1geg_NAD_8_ligand
   69    73     1     0     0
SMALL
NO_CHARGES


@<TRIPOS>ATOM
      1 PA         11.2950  -42.6750   46.8490 P.3       1 NAD2004     0.0000 
      2 O1A        12.2850  -42.5640   47.9480 O.co2     1 NAD2004     0.0000 
      3 O2A        10.7600  -44.0320   46.5950 O.co2     1 NAD2004     0.0000 
      4 O5B        11.9060  -42.1060   45.4720 O.3       1 NAD2004     0.0000 
      5 C5B        12.6440  -40.8640   45.5080 C.3       1 NAD2004     0.0000 
      6 C4B        13.4750  -40.6880   44.2430 C.3       1 NAD2004     0.0000 
      7 O4B        14.1360  -39.4290   44.4900 O.3       1 NAD2004     0.0000 
      8 C3B        14.5670  -41.7480   44.1080 C.3       1 NAD2004     0.0000 
      9 O3B        14.4870  -42.3170   42.7850 O.3       1 NAD2004     0.0000 
     10 C2B        15.8410  -40.9620   44.4170 C.3       1 NAD2004     0.0000 
     11 O2B        17.0170  -41.4670   43.7380 O.3       1 NAD2004     0.0000 
     12 C1B        15.4610  -39.5370   44.0530 C.3       1 NAD2004     0.0000 
     13 N9A        16.2350  -38.5220   44.7650 N.pl3     1 NAD2004     0.0000 
     14 C8A        16.5040  -38.4690   46.1050 C.2       1 NAD2004     0.0000 
     15 N7A        17.2460  -37.4280   46.4640 N.2       1 NAD2004     0.0000 
     16 C5A        17.4710  -36.7640   45.2800 C.ar      1 NAD2004     0.0000 
     17 C6A        18.1920  -35.5880   45.0020 C.ar      1 NAD2004     0.0000 
     18 N6A        18.8400  -34.8450   45.8790 N.pl3     1 NAD2004     0.0000 
     19 N1A        18.2360  -35.1670   43.6980 N.ar      1 NAD2004     0.0000 
     20 C2A        17.5700  -35.9280   42.7620 C.ar      1 NAD2004     0.0000 
     21 N3A        16.8730  -37.0340   42.9040 N.ar      1 NAD2004     0.0000 
     22 C4A        16.8560  -37.4140   44.2120 C.ar      1 NAD2004     0.0000 
     23 O3         10.1460  -41.6550   47.1480 O.3       1 NAD2004     0.0000 
     24 PN          8.5640  -41.5600   46.7110 P.3       1 NAD2004     0.0000 
     25 O1N         8.4860  -41.9440   45.2890 O.co2     1 NAD2004     0.0000 
     26 O2N         7.7870  -42.4070   47.6360 O.co2     1 NAD2004     0.0000 
     27 O5D         8.3800  -40.0000   46.9450 O.3       1 NAD2004     0.0000 
     28 C5D         8.2050  -39.1450   45.8160 C.3       1 NAD2004     0.0000 
     29 C4D         7.7540  -37.7910   46.3190 C.3       1 NAD2004     0.0000 
     30 O4D         6.4340  -37.9770   46.8950 O.3       1 NAD2004     0.0000 
     31 C3D         8.5810  -37.1340   47.4310 C.3       1 NAD2004     0.0000 
     32 O3D         8.5910  -35.7060   47.2600 O.3       1 NAD2004     0.0000 
     33 C2D         7.8230  -37.5380   48.6890 C.3       1 NAD2004     0.0000 
     34 O2D         8.0780  -36.6130   49.7670 O.3       1 NAD2004     0.0000 
     35 C1D         6.4080  -37.4790   48.2060 C.3       1 NAD2004     0.0000 
     36 N1N         5.4950  -38.2690   49.0140 N.pl3     1 NAD2004     0.0000 
     37 C2N         5.6420  -39.6580   49.2030 C.ar      1 NAD2004     0.0000 
     38 C3N         4.7070  -40.4100   50.0850 C.ar      1 NAD2004     0.0000 
     39 C7N         4.9380  -41.8540   50.2850 C.2       1 NAD2004     0.0000 
     40 O7N         4.1460  -42.4400   51.0410 O.2       1 NAD2004     0.0000 
     41 N7N         5.9370  -42.5380   49.7090 N.am      1 NAD2004     0.0000 
     42 C4N         3.5200  -39.6760   50.6770 C.ar      1 NAD2004     0.0000 
     43 C5N         3.5200  -38.2210   50.3680 C.ar      1 NAD2004     0.0000 
     44 C6N         4.4030  -37.5960   49.6260 C.ar      1 NAD2004     0.0000 
     45 H          13.3258  -40.8323   46.3697 H         1 NAD2004     0.0000 
     46 H          11.9668  -40.0022   45.5924 H         1 NAD2004     0.0000 
     47 H          12.8677  -40.6478   43.4087 H         1 NAD2004     0.0000 
     48 H          14.4059  -42.4595   44.8857 H         1 NAD2004     0.0000 
     49 H          15.9564  -40.9866   45.5050 H         1 NAD2004     0.0000 
     50 H          15.5280  -39.4207   43.0018 H         1 NAD2004     0.0000 
     51 H          16.1623  -39.1633   46.7415 H         1 NAD2004     0.0000 
     52 H          17.6475  -35.5234   41.7257 H         1 NAD2004     0.0000 
     53 H           7.4445  -39.5268   45.1336 H         1 NAD2004     0.0000 
     54 H           9.1350  -39.0113   45.2619 H         1 NAD2004     0.0000 
     55 H           7.6709  -37.1008   45.4941 H         1 NAD2004     0.0000 
     56 H           9.5312  -37.5765   47.4443 H         1 NAD2004     0.0000 
     57 H           8.0726  -38.5392   48.9128 H         1 NAD2004     0.0000 
     58 H           6.1016  -36.4374   48.2001 H         1 NAD2004     0.0000 
     59 H           6.3822  -40.1828   48.7483 H         1 NAD2004     0.0000 
     60 H           6.5520  -42.0095   49.1238 H         1 NAD2004     0.0000 
     61 H           5.9777  -43.5155   49.9161 H         1 NAD2004     0.0000 
     62 H           2.8587  -40.1094   51.1857 H         1 NAD2004     0.0000 
     63 H           2.7039  -37.6999   50.8204 H         1 NAD2004     0.0000 
     64 H           4.3412  -36.5590   49.4495 H         1 NAD2004     0.0000 
     65 H          14.7577  -41.5776   42.1686 H         1 NAD2004     0.0000 
     66 H          17.2498  -40.7638   43.0662 H         1 NAD2004     0.0000 
     67 H          19.5354  -34.3630   45.3460 H         1 NAD2004     0.0000 
     68 H           9.3281  -35.5287   46.6079 H         1 NAD2004     0.0000 
     69 H           8.4583  -35.8001   49.3258 H         1 NAD2004     0.0000 
@<TRIPOS>BOND
     1    2    1 ar   
     2    3    1 ar   
     3    4    1 1    
     4   23    1 1    
     5    5    4 1    
     6    6    5 1    
     7   45    5 1    
     8   46    5 1    
     9    7    6 1    
    10    8    6 1    
    11   47    6 1    
    12   12    7 1    
    13    9    8 1    
    14   10    8 1    
    15   48    8 1    
    16   65    9 1    
    17   11   10 1    
    18   12   10 1    
    19   49   10 1    
    20   66   11 1    
    21   13   12 1    
    22   50   12 1    
    23   14   13 1    
    24   22   13 1    
    25   15   14 2    
    26   51   14 1    
    27   16   15 1    
    28   17   16 ar   
    29   22   16 ar   
    30   18   17 1    
    31   19   17 ar   
    32   67   18 1    
    33   20   19 ar   
    34   21   20 ar   
    35   52   20 1    
    36   22   21 ar   
    37   24   23 1    
    38   25   24 ar   
    39   26   24 ar   
    40   27   24 1    
    41   28   27 1    
    42   29   28 1    
    43   53   28 1    
    44   54   28 1    
    45   30   29 1    
    46   31   29 1    
    47   55   29 1    
    48   35   30 1    
    49   32   31 1    
    50   33   31 1    
    51   56   31 1    
    52   68   32 1    
    53   34   33 1    
    54   35   33 1    
    55   57   33 1    
    56   69   34 1    
    57   36   35 1    
    58   58   35 1    
    59   37   36 ar   
    60   44   36 ar   
    61   38   37 ar   
    62   59   37 1    
    63   39   38 1    
    64   42   38 ar   
    65   40   39 2    
    66   41   39 am   
    67   60   41 1    
    68   61   41 1    
    69   43   42 ar   
    70   62   42 1    
    71   44   43 ar   
    72   63   43 1    
    73   64   44 1    
@<TRIPOS>SUBSTRUCTURE
     1 NAD2004     1 GROUP   
@<TRIPOS>SET

