#    Name: 3ju6_ANP_1_INTS_M
#    Modification time : Tue Mar 25 17:55:37 2014

@<TRIPOS>MOLECULE
3ju6_ANP_1_INTS_M
   72     0    12     0     0
SMALL
NO_CHARGES


@<TRIPOS>ATOM
      1 N          -9.6355   28.0750    9.9430 N.am      2 SEC2        0.0000 
      2 N          -8.8240   27.7560    8.7290 N.am     10 SEL2        0.0000 
      3 N         -10.4470   28.3940   11.1570 N.am      6 SEP2        0.0000 
      4 N          -8.8025   27.7755    7.2070 N.am      2 SEC2        0.0000 
      5 N          -8.7810   27.7950    5.6850 N.am      6 SEP2        0.0000 
      6 NZ        -11.7895   22.7465    9.9290 N.4       3 LYC4        0.0000 
      7 NZ        -10.7260   23.7580    9.8620 N.4      11 LYL4        0.0000 
      8 NZ        -13.5700   22.1190    8.9570 N.4       7 LYP4        0.0000 
      9 N         -12.0785   23.5550    9.1730 N.am      2 SEC2        0.0000 
     10 N         -10.7260   23.7580    9.8620 N.am     10 SEL2        0.0000 
     11 N         -13.4310   23.3520    8.4840 N.am      6 SEP2        0.0000 
     12 N         -11.7895   22.7465    9.9290 N.am      2 SEC2        0.0000 
     13 N         -12.8530   21.7350    9.9960 N.am      6 SEP2        0.0000 
     14 NZ        -11.7360   26.6120   10.4790 N.4       3 LYC4        0.0000 
     15 NZ        -11.2380   26.2570    9.4830 N.4      11 LYL4        0.0000 
     16 NZ        -11.5350   28.0400   11.8380 N.4       7 LYP4        0.0000 
     17 NZ        -11.4515   26.7945    8.2185 N.4       3 LYC4        0.0000 
     18 NZ        -11.9170   26.8650    5.7360 N.4       7 LYP4        0.0000 
     19 N         -11.7360   26.6120   10.4790 N.am      2 SEC2        0.0000 
     20 N         -11.2380   26.2570    9.4830 N.am     10 SEL2        0.0000 
     21 N         -12.2340   26.9670   11.4750 N.am      6 SEP2        0.0000 
     22 N         -10.8425   27.3255   10.3200 N.am      2 SEC2        0.0000 
     23 N         -11.4515   26.7945    8.2185 N.am      2 SEC2        0.0000 
     24 N         -11.6650   27.3320    6.9540 N.am      6 SEP2        0.0000 
     25 N          -8.5605   26.2665    5.7770 N.am      2 SEC2        0.0000 
     26 N          -8.3400   24.7380    5.8690 N.am     10 SEL2        0.0000 
     27 N         -10.8605   26.1260    7.3475 N.am      2 SEC2        0.0000 
     28 N         -10.0560   24.9200    7.7410 N.am     10 SEL2        0.0000 
     29 N         -10.8740   25.2560    6.6005 N.am      2 SEC2        0.0000 
     30 N         -11.6920   25.5920    5.4600 N.am      6 SEP2        0.0000 
     31 N         -10.4585   18.1835    3.1340 N.am      2 SEC2        0.0000 
     32 N         -10.2840   19.2560    3.6130 N.am     10 SEL2        0.0000 
     33 N         -10.6330   17.1110    2.6550 N.am      6 SEP2        0.0000 
     34 CA        -13.4525   20.8965    6.3130 C.3       4 GLC5        0.0000 
     35 CA        -11.6200   20.2570    5.3600 C.3      12 GLL5        0.0000 
     36 CA        -15.2850   21.5360    7.2660 C.3       8 GLP5        0.0000 
     37 N         -14.7745   23.9965    4.4755 N.am      2 SEC2        0.0000 
     38 N         -13.9080   22.9420    4.3680 N.am     10 SEL2        0.0000 
     39 N         -15.6410   25.0510    4.5830 N.am      6 SEP2        0.0000 
     40 CA        -16.6315   22.0195    4.8765 C.3       4 GLC5        0.0000 
     41 CA        -15.8320   21.6280    3.3480 C.3      12 GLL5        0.0000 
     42 CA        -17.4310   22.4110    6.4050 C.3       8 GLP5        0.0000 
     43 CA        -16.9535   23.0980    2.0830 C.3       4 GLC5        0.0000 
     44 CA        -18.0750   24.5680    0.8180 C.3       8 GLP5        0.0000 
     45 O         -17.8770   22.1865    2.0355 O.2       1 ALC1        0.0000 
     46 O         -16.6440   22.6520    3.0100 O.2       9 ALL1        0.0000 
     47 O         -19.1100   21.7210    1.0610 O.2       5 ALP1        0.0000 
     48 O         -16.1425   23.8515    3.7965 O.2       1 ALC1        0.0000 
     49 O         -15.6410   25.0510    4.5830 O.2       5 ALP1        0.0000 
     50 N         -16.8100   19.5375    2.0190 N.am      2 SEC2        0.0000 
     51 N         -16.2320   20.3670    3.0740 N.am     10 SEL2        0.0000 
     52 N         -17.3880   18.7080    0.9640 N.am      6 SEP2        0.0000 
     53 CA        -17.0675   18.9225    2.4510 C.3       4 GLC5        0.0000 
     54 CA        -15.4600   19.3150    3.3970 C.3      12 GLL5        0.0000 
     55 CA        -18.6750   18.5300    1.5050 C.3       8 GLP5        0.0000 
     56 CA        -15.3725   20.4255    5.3315 C.3       4 GLC5        0.0000 
     57 CA        -13.8340   17.9685    3.9810 C.3       4 GLC5        0.0000 
     58 CA        -12.2080   16.6220    4.5650 C.3       8 GLP5        0.0000 
     59 CA        -15.7985   18.1395    4.7810 C.3       4 GLC5        0.0000 
     60 CA        -16.1370   16.9640    6.1650 C.3       8 GLP5        0.0000 
     61 CA        -14.8605   20.2315    1.5295 C.3       4 GLC5        0.0000 
     62 CA        -14.2610   21.1480   -0.3380 C.3       8 GLP5        0.0000 
     63 CA        -13.0130   18.6790    4.4250 C.3       4 GLC5        0.0000 
     64 CA        -13.8180   20.7360    4.2850 C.3      12 GLL5        0.0000 
     65 CA         -9.5300   20.8197    9.3335 C.3       4 GLC5        0.0000 
     66 CA         -9.9310   20.3310    7.0060 C.3      12 GLL5        0.0000 
     67 CA         -9.4200   20.6990   11.3030 C.3       8 GLP5        0.0000 
     68 CA        -11.5850   18.4490    4.7725 C.3       4 GLC5        0.0000 
     69 CA        -14.7450   21.4135    5.6955 C.3       4 GLC5        0.0000 
     70 CA        -14.1375   21.6598    2.2359 C.3       4 GLC5        0.0000 
     71 CA        -14.5920   21.8460    3.9650 C.3      12 GLL5        0.0000 
     72 CA        -13.7600   22.0830    0.5010 C.3       8 GLP5        0.0000 
@<TRIPOS>BOND
@<TRIPOS>SUBSTRUCTURE
     1 ALC1       45 GROUP        1 X    ALC  0     ROOT ALC X 1
     2 SEC2        1 GROUP        1 X    SEC  0     **** SEC X 2
     3 LYC4        6 GROUP        1 X    LYC  0     **** LYC X 4
     4 GLC5       34 GROUP        1 X    GLC  0     **** GLC X 6
     5 ALP1       47 GROUP        1 Y    ALP  0     ROOT ALP Y 8
     6 SEP2        3 GROUP        1 Y    SEP  0     **** SEP Y 9
     7 LYP4        8 GROUP        1 Y    LYP  0     **** LYP Y 11
     8 GLP5       36 GROUP        1 Y    GLP  0     **** GLP Y 13
     9 ALL1       46 GROUP        1 Z    ALL  0     ROOT ALL Z 15
    10 SEL2        2 GROUP        1 Z    SEL  0     **** SEL Z 16
    11 LYL4        7 GROUP        1 Z    LYL  0     **** LYL Z 18
    12 GLL5       35 GROUP        1 Z    GLL  0     **** GLL Z 20
@<TRIPOS>SET

