#    Name: 3ju6_ANP_1_ligand
#    Modification time : Tue Mar 25 17:55:37 2014

@<TRIPOS>MOLECULE
3ju6_ANP_1_ligand
   43    45     1     0     0
SMALL
NO_CHARGES


@<TRIPOS>ATOM
      1 PG         -7.9250   26.8560    9.5470 P.3       1 ANP6001     0.0000 
      2 O1G        -8.8240   27.7560    8.7290 O.co2     1 ANP6001     0.0000 
      3 O2G        -6.8030   26.2080    8.7640 O.co2     1 ANP6001     0.0000 
      4 O3G        -7.4940   27.5220   10.8290 O.co2     1 ANP6001     0.0000 
      5 PB        -10.2900   25.0980    9.3240 P.3       1 ANP6001     0.0000 
      6 O1B       -10.7260   23.7580    9.8620 O.co2     1 ANP6001     0.0000 
      7 O2B       -11.2380   26.2570    9.4830 O.co2     1 ANP6001     0.0000 
      8 N3B        -8.8350   25.5300   10.0370 N.4       1 ANP6001     0.0000 
      9 PA         -8.7760   24.1150    7.1830 P.3       1 ANP6001     0.0000 
     10 O1A        -8.3400   24.7380    5.8690 O.co2     1 ANP6001     0.0000 
     11 O2A        -7.7960   23.9190    8.3240 O.co2     1 ANP6001     0.0000 
     12 O3A       -10.0560   24.9200    7.7410 O.3       1 ANP6001     0.0000 
     13 O5'        -9.4780   22.6950    6.8740 O.3       1 ANP6001     0.0000 
     14 C5'        -9.3490   21.5500    7.7220 C.3       1 ANP6001     0.0000 
     15 C4'        -9.9310   20.3310    7.0060 C.3       1 ANP6001     0.0000 
     16 O4'       -11.3200   20.5560    6.7280 O.3       1 ANP6001     0.0000 
     17 C3'        -9.2510   20.0520    5.6720 C.3       1 ANP6001     0.0000 
     18 O3'        -8.8360   18.6810    5.6580 O.3       1 ANP6001     0.0000 
     19 C2'       -10.3040   20.2950    4.6000 C.3       1 ANP6001     0.0000 
     20 O2'       -10.2840   19.2560    3.6130 O.3       1 ANP6001     0.0000 
     21 C1'       -11.6200   20.2570    5.3600 C.3       1 ANP6001     0.0000 
     22 N9        -12.6930   21.1650    4.8580 N.pl3     1 ANP6001     0.0000 
     23 C8        -12.7480   22.5100    4.9180 C.2       1 ANP6001     0.0000 
     24 N7        -13.9080   22.9420    4.3680 N.2       1 ANP6001     0.0000 
     25 C5        -14.5920   21.8460    3.9650 C.ar      1 ANP6001     0.0000 
     26 C6        -15.8320   21.6280    3.3480 C.ar      1 ANP6001     0.0000 
     27 N6        -16.6440   22.6520    3.0100 N.pl3     1 ANP6001     0.0000 
     28 N1        -16.2320   20.3670    3.0740 N.ar      1 ANP6001     0.0000 
     29 C2        -15.4600   19.3150    3.3970 C.ar      1 ANP6001     0.0000 
     30 N3        -14.2680   19.4880    3.9930 N.ar      1 ANP6001     0.0000 
     31 C4        -13.8180   20.7360    4.2850 C.ar      1 ANP6001     0.0000 
     32 H          -9.8922   21.6774    8.6616 H         1 ANP6001     0.0000 
     33 H          -8.3037   21.3335    7.9557 H         1 ANP6001     0.0000 
     34 H          -9.8108   19.4653    7.6366 H         1 ANP6001     0.0000 
     35 H          -8.4556   20.7291    5.5447 H         1 ANP6001     0.0000 
     36 H         -10.1712   21.2624    4.2018 H         1 ANP6001     0.0000 
     37 H         -11.9891   19.2149    5.3113 H         1 ANP6001     0.0000 
     38 H         -12.0621   23.0859    5.2972 H         1 ANP6001     0.0000 
     39 H         -17.2376   22.5005    2.2197 H         1 ANP6001     0.0000 
     40 H         -16.5797   23.4711    3.5799 H         1 ANP6001     0.0000 
     41 H         -15.7938   18.3427    3.1801 H         1 ANP6001     0.0000 
     42 H          -9.3144   18.2738    4.8799 H         1 ANP6001     0.0000 
     43 H         -11.1944   19.2743    3.1996 H         1 ANP6001     0.0000 
@<TRIPOS>BOND
     1    2    1 ar   
     2    3    1 ar   
     3    4    1 ar   
     4    8    1 1    
     5    6    5 ar   
     6    7    5 ar   
     7    8    5 1    
     8   12    5 1    
     9   10    9 ar   
    10   11    9 ar   
    11   12    9 1    
    12   13    9 1    
    13   14   13 1    
    14   15   14 1    
    15   32   14 1    
    16   33   14 1    
    17   16   15 1    
    18   17   15 1    
    19   34   15 1    
    20   21   16 1    
    21   18   17 1    
    22   19   17 1    
    23   35   17 1    
    24   42   18 1    
    25   20   19 1    
    26   21   19 1    
    27   36   19 1    
    28   43   20 1    
    29   22   21 1    
    30   37   21 1    
    31   23   22 1    
    32   31   22 1    
    33   24   23 2    
    34   38   23 1    
    35   25   24 1    
    36   26   25 ar   
    37   31   25 ar   
    38   27   26 1    
    39   28   26 ar   
    40   39   27 1    
    41   40   27 1    
    42   29   28 ar   
    43   30   29 ar   
    44   41   29 1    
    45   31   30 ar   
@<TRIPOS>SUBSTRUCTURE
     1 ANP6001     1 GROUP   
@<TRIPOS>SET

