#    Name: 2pe1_517_1_INTS_M
#    Modification time : Mon Mar 24 18:54:54 2014

@<TRIPOS>MOLECULE
2pe1_517_1_INTS_M
   56     0     9     0     0
SMALL
NO_CHARGES


@<TRIPOS>ATOM
      1 CA         -5.3360   42.2995   43.1610 C.3       3 GLC5        0.0000 
      2 CA         -5.7280   42.3580   45.2500 C.3       9 GLL5        0.0000 
      3 CA         -4.9440   42.2410   41.0720 C.3       6 GLP5        0.0000 
      4 CA         -3.7995   44.7485   46.9290 C.3       3 GLC5        0.0000 
      5 CA         -4.5770   43.3720   45.4190 C.3       9 GLL5        0.0000 
      6 CA         -3.0220   46.1250   48.4390 C.3       6 GLP5        0.0000 
      7 CA         -7.5415   42.2535   46.7445 C.3       3 GLC5        0.0000 
      8 CA         -7.0250   42.8040   44.7640 C.3       9 GLL5        0.0000 
      9 CA         -8.0580   41.7030   48.7250 C.3       6 GLP5        0.0000 
     10 N          -9.2205   39.8085   44.3515 N.am      2 SEC2        0.0000 
     11 N          -8.3810   40.8940   45.0330 N.am      8 SEL2        0.0000 
     12 N         -10.0600   38.7230   43.6700 N.am      5 SEP2        0.0000 
     13 O         -10.5570   42.2550   43.9640 O.2       1 ALC1        0.0000 
     14 O          -9.1860   42.8070   44.1620 O.2       7 ALL1        0.0000 
     15 O         -11.9280   41.7030   43.7660 O.2       4 ALP1        0.0000 
     16 CA         -9.9475   43.5000   45.3995 C.3       3 GLC5        0.0000 
     17 CA         -8.7150   44.0350   43.9110 C.3       9 GLL5        0.0000 
     18 CA        -11.1800   42.9650   46.8880 C.3       6 GLP5        0.0000 
     19 CA        -10.9725   44.9355   41.9345 C.3       3 GLC5        0.0000 
     20 CA         -9.3400   45.1670   43.3640 C.3       9 GLL5        0.0000 
     21 CA        -12.6050   44.7040   40.5050 C.3       6 GLP5        0.0000 
     22 CA         -8.8620   45.7385   41.2575 C.3       3 GLC5        0.0000 
     23 CA         -8.3840   46.3100   39.1510 C.3       6 GLP5        0.0000 
     24 N          -8.5215   50.2155   42.8515 N.am      2 SEC2        0.0000 
     25 N          -8.0480   48.9110   42.3490 N.am      8 SEL2        0.0000 
     26 N          -8.9950   51.5200   43.3540 N.am      5 SEP2        0.0000 
     27 N          -8.5525   48.0160   41.2335 N.am      2 SEC2        0.0000 
     28 N          -9.0570   47.1210   40.1180 N.am      5 SEP2        0.0000 
     29 O          -5.9380   50.8830   41.7075 O.2       1 ALC1        0.0000 
     30 O          -6.0270   49.7080   42.8300 O.2       7 ALL1        0.0000 
     31 O          -5.8490   52.0580   40.5850 O.2       4 ALP1        0.0000 
     32 CA         -5.6743   39.7602   48.0825 C.3       3 GLC5        0.0000 
     33 CA         -4.3960   39.2650   46.3560 C.3       9 GLL5        0.0000 
     34 CA         -6.3400   40.4430   49.9790 C.3       6 GLP5        0.0000 
     35 CA         -5.3777   41.7862   47.5370 C.3       3 GLC5        0.0000 
     36 CA         -4.2810   40.5660   46.1090 C.3       9 GLL5        0.0000 
     37 CA         -5.8930   42.7840   49.2130 C.3       6 GLP5        0.0000 
     38 CA         -5.5227   42.8245   47.2737 C.3       3 GLC5        0.0000 
     39 CA         -8.3268   44.8822   45.9825 C.3       3 GLC5        0.0000 
     40 CA         -7.3500   44.0880   44.2770 C.3       9 GLL5        0.0000 
     41 CA         -8.6210   45.7030   47.8710 C.3       6 GLP5        0.0000 
     42 CA         -7.1539   43.4778   42.5431 C.3       3 GLC5        0.0000 
     43 CA         -6.6320   45.2930   44.0860 C.3       9 GLL5        0.0000 
     44 CA         -7.3980   42.5860   40.7830 C.3       6 GLP5        0.0000 
     45 CA         -8.2127   43.5935   42.2103 C.3       3 GLC5        0.0000 
     46 CA        -10.6705   46.6818   43.5175 C.3       3 GLC5        0.0000 
     47 CA        -12.3620   47.6030   43.7660 C.3       6 GLP5        0.0000 
     48 CA         -7.6537   46.9751   45.3177 C.3       3 GLC5        0.0000 
     49 CA         -8.6180   46.3540   43.1740 C.3       9 GLL5        0.0000 
     50 CA         -7.5270   47.8430   47.1440 C.3       6 GLP5        0.0000 
     51 CA         -7.4195   46.2905   41.4445 C.3       3 GLC5        0.0000 
     52 CA         -7.2540   46.4280   43.5320 C.3       9 GLL5        0.0000 
     53 CA         -6.9030   46.1900   39.5360 C.3       6 GLP5        0.0000 
     54 CA         -4.2877   39.0555   44.5448 C.3       3 GLC5        0.0000 
     55 CA         -5.4440   41.0110   45.6130 C.3       9 GLL5        0.0000 
     56 CA         -3.6400   38.1780   43.0660 C.3       6 GLP5        0.0000 
@<TRIPOS>BOND
@<TRIPOS>SUBSTRUCTURE
     1 ALC1       13 GROUP        1 X    ALC  0     ROOT ALC X 1
     2 SEC2       10 GROUP        1 X    SEC  0     **** SEC X 2
     3 GLC5        1 GROUP        1 X    GLC  0     **** GLC X 6
     4 ALP1       15 GROUP        1 Y    ALP  0     ROOT ALP Y 8
     5 SEP2       12 GROUP        1 Y    SEP  0     **** SEP Y 9
     6 GLP5        3 GROUP        1 Y    GLP  0     **** GLP Y 13
     7 ALL1       14 GROUP        1 Z    ALL  0     ROOT ALL Z 15
     8 SEL2       11 GROUP        1 Z    SEL  0     **** SEL Z 16
     9 GLL5        2 GROUP        1 Z    GLL  0     **** GLL Z 20
@<TRIPOS>SET

