#    Name: 2pe1_517_1_ligand
#    Modification time : Mon Mar 24 18:54:54 2014

@<TRIPOS>MOLECULE
2pe1_517_1_ligand
   35    37     1     0     0
SMALL
NO_CHARGES


@<TRIPOS>ATOM
      1 N22        -6.2660   39.9610   45.5570 N.pl3     1 517501      0.0000 
      2 C24        -5.6210   38.8900   46.0160 C.2       1 517501      0.0000 
      3 C25        -4.3960   39.2650   46.3560 C.2       1 517501      0.0000 
      4 C26        -4.2810   40.5660   46.1090 C.2       1 517501      0.0000 
      5 C21        -5.4440   41.0110   45.6130 C.2       1 517501      0.0000 
      6 C19        -5.7280   42.3580   45.2500 C.2       1 517501      0.0000 
      7 C20        -4.5770   43.3720   45.4190 C.3       1 517501      0.0000 
      8 C5         -7.0250   42.8040   44.7640 C.2       1 517501      0.0000 
      9 C7         -7.3500   44.0880   44.2770 C.ar      1 517501      0.0000 
     10 C8         -6.6320   45.2930   44.0860 C.ar      1 517501      0.0000 
     11 C3         -8.2100   42.0570   44.6680 C.2       1 517501      0.0000 
     12 O4         -8.3810   40.8940   45.0330 O.2       1 517501      0.0000 
     13 N1         -9.1860   42.8070   44.1620 N.am      1 517501      0.0000 
     14 C6         -8.7150   44.0350   43.9110 C.ar      1 517501      0.0000 
     15 C11        -9.3400   45.1670   43.3640 C.ar      1 517501      0.0000 
     16 C10        -8.6180   46.3540   43.1740 C.ar      1 517501      0.0000 
     17 C9         -7.2540   46.4280   43.5320 C.ar      1 517501      0.0000 
     18 N12        -6.5180   47.5590   43.3850 N.am      1 517501      0.0000 
     19 C14        -6.9310   48.7370   42.8500 C.2       1 517501      0.0000 
     20 O15        -8.0480   48.9110   42.3490 O.2       1 517501      0.0000 
     21 N16        -6.0270   49.7080   42.8300 N.am      1 517501      0.0000 
     22 H          -7.1842   39.9771   45.2340 H         1 517501      0.0000 
     23 H          -5.9871   37.9936   46.0875 H         1 517501      0.0000 
     24 H          -3.7022   38.6913   46.7218 H         1 517501      0.0000 
     25 H          -3.4890   41.1095   46.2604 H         1 517501      0.0000 
     26 H          -5.6409   45.3366   44.3572 H         1 517501      0.0000 
     27 H         -10.1028   42.5125   43.9978 H         1 517501      0.0000 
     28 H         -10.3320   45.1247   43.1017 H         1 517501      0.0000 
     29 H          -9.0803   47.1773   42.7722 H         1 517501      0.0000 
     30 H          -5.4885   47.5178   43.7323 H         1 517501      0.0000 
     31 H          -6.3155   50.5692   42.4116 H         1 517501      0.0000 
     32 H          -5.1389   49.4908   43.2351 H         1 517501      0.0000 
     33 H          -4.2691   43.4294   46.3687 H         1 517501      0.0000 
     34 H          -3.7805   43.1251   44.8671 H         1 517501      0.0000 
     35 H          -4.8504   44.2935   45.1433 H         1 517501      0.0000 
@<TRIPOS>BOND
     1    2    1 1    
     2    5    1 1    
     3   22    1 1    
     4    3    2 2    
     5   23    2 1    
     6    4    3 1    
     7   24    3 1    
     8    5    4 2    
     9   25    4 1    
    10    6    5 1    
    11    7    6 1    
    12    8    6 2    
    13   33    7 1    
    14   34    7 1    
    15   35    7 1    
    16    9    8 1    
    17   11    8 1    
    18   10    9 ar   
    19   14    9 ar   
    20   17   10 ar   
    21   26   10 1    
    22   12   11 2    
    23   13   11 am   
    24   14   13 1    
    25   27   13 1    
    26   15   14 ar   
    27   16   15 ar   
    28   28   15 1    
    29   17   16 ar   
    30   29   16 1    
    31   18   17 1    
    32   19   18 am   
    33   30   18 1    
    34   20   19 2    
    35   21   19 am   
    36   31   21 1    
    37   32   21 1    
@<TRIPOS>SUBSTRUCTURE
     1 517501      1 GROUP   
@<TRIPOS>SET

