#    Name: 1hux_ADP_1_INTS_M
#    Modification time : Tue Mar 25 06:15:15 2014

@<TRIPOS>MOLECULE
1hux_ADP_1_INTS_M
   50     0    12     0     0
SMALL
NO_CHARGES


@<TRIPOS>ATOM
      1 NZ         28.4365   41.0870   46.1925 N.4       3 LYC4        0.0000 
      2 NZ         28.0420   41.5010   47.3550 N.4      11 LYL4        0.0000 
      3 NZ         28.8310   40.6730   45.0300 N.4       7 LYP4        0.0000 
      4 N          25.7945   42.8045   48.7245 N.am      2 SEC2        0.0000 
      5 N          27.0220   43.2360   48.9400 N.am     10 SEL2        0.0000 
      6 N          24.5670   42.3730   48.5090 N.am      6 SEP2        0.0000 
      7 N          26.0615   43.7500   49.7555 N.am      2 SEC2        0.0000 
      8 N          25.1010   44.2640   50.5710 N.am      6 SEP2        0.0000 
      9 N          26.1630   43.9885   48.1890 N.am      2 SEC2        0.0000 
     10 N          25.3040   44.7410   47.4380 N.am      6 SEP2        0.0000 
     11 NZ         29.7140   41.9030   45.4850 N.4       3 LYC4        0.0000 
     12 NZ         30.5970   43.1330   45.9400 N.4      11 LYL4        0.0000 
     13 N          29.7140   41.9030   45.4850 N.am      2 SEC2        0.0000 
     14 N          30.5970   43.1330   45.9400 N.am     10 SEL2        0.0000 
     15 N          28.8310   40.6730   45.0300 N.am      6 SEP2        0.0000 
     16 N          31.4470   43.5895   44.9705 N.am      2 SEC2        0.0000 
     17 N          32.2970   44.0460   44.0010 N.am      6 SEP2        0.0000 
     18 CA         33.9265   46.7375   49.4840 C.3       4 GLC5        0.0000 
     19 CA         32.6690   46.4780   48.0580 C.3      12 GLL5        0.0000 
     20 CA         35.1840   46.9970   50.9100 C.3       8 GLP5        0.0000 
     21 CA         30.5410   47.1510   49.7870 C.3       4 GLC5        0.0000 
     22 CA         31.6650   47.7510   48.0050 C.3      12 GLL5        0.0000 
     23 CA         29.4170   46.5510   51.5690 C.3       8 GLP5        0.0000 
     24 CA         34.4610   46.2515   46.8015 C.3       4 GLC5        0.0000 
     25 CA         33.6950   48.1390   46.8920 C.3      12 GLL5        0.0000 
     26 CA         35.2270   44.3640   46.7110 C.3       8 GLP5        0.0000 
     27 CA         34.4395   47.5680   48.9010 C.3       4 GLC5        0.0000 
     28 CA         37.4305   51.4235   43.4190 C.3       4 GLC5        0.0000 
     29 CA         37.3310   49.6700   44.0590 C.3      12 GLL5        0.0000 
     30 CA         37.5300   53.1770   42.7790 C.3       8 GLP5        0.0000 
     31 CA         38.6830   48.1710   44.4465 C.3       4 GLC5        0.0000 
     32 CA         40.0350   46.6720   44.8340 C.3       8 GLP5        0.0000 
     33 O          38.0270   48.4350   42.7055 O.2       1 ALC1        0.0000 
     34 O          37.8480   49.7120   42.7980 O.2       9 ALL1        0.0000 
     35 O          38.2060   47.1580   42.6130 O.2       5 ALP1        0.0000 
     36 CA         36.2230   51.6140   47.0225 C.3       4 GLC5        0.0000 
     37 CA         37.5060   50.2310   46.3220 C.3      12 GLL5        0.0000 
     38 CA         34.9400   52.9970   47.7230 C.3       8 GLP5        0.0000 
     39 CA         37.7700   51.9425   45.2310 C.3       4 GLC5        0.0000 
     40 CA         38.0340   53.6540   44.1400 C.3       8 GLP5        0.0000 
     41 CA         39.0740   49.8665   47.8075 C.3       4 GLC5        0.0000 
     42 CA         40.6420   49.5020   49.2930 C.3       8 GLP5        0.0000 
     43 CA         35.3145   51.0330   46.6985 C.3       4 GLC5        0.0000 
     44 CA         35.6890   49.0690   45.6740 C.3      12 GLL5        0.0000 
     45 CA         32.2107   44.7918   49.5613 C.3       4 GLC5        0.0000 
     46 CA         31.9430   43.7430   51.3910 C.3       8 GLP5        0.0000 
     47 CA         33.8527   45.1022   47.2212 C.3       4 GLC5        0.0000 
     48 CA         32.2880   45.2030   47.4050 C.3      12 GLL5        0.0000 
     49 CA         29.9875   47.5113   46.6723 C.3       4 GLC5        0.0000 
     50 CA         28.0410   46.9420   45.9670 C.3       8 GLP5        0.0000 
@<TRIPOS>BOND
@<TRIPOS>SUBSTRUCTURE
     1 ALC1       33 GROUP        1 X    ALC  0     ROOT ALC X 1
     2 SEC2        4 GROUP        1 X    SEC  0     **** SEC X 2
     3 LYC4        1 GROUP        1 X    LYC  0     **** LYC X 4
     4 GLC5       18 GROUP        1 X    GLC  0     **** GLC X 6
     5 ALP1       35 GROUP        1 Y    ALP  0     ROOT ALP Y 8
     6 SEP2        6 GROUP        1 Y    SEP  0     **** SEP Y 9
     7 LYP4        3 GROUP        1 Y    LYP  0     **** LYP Y 11
     8 GLP5       20 GROUP        1 Y    GLP  0     **** GLP Y 13
     9 ALL1       34 GROUP        1 Z    ALL  0     ROOT ALL Z 15
    10 SEL2        5 GROUP        1 Z    SEL  0     **** SEL Z 16
    11 LYL4        2 GROUP        1 Z    LYL  0     **** LYL Z 18
    12 GLL5       19 GROUP        1 Z    GLL  0     **** GLL Z 20
@<TRIPOS>SET

