#    Name: 1hux_ADP_1_ligand
#    Modification time : Tue Mar 25 06:15:15 2014

@<TRIPOS>MOLECULE
1hux_ADP_1_ligand
   39    41     1     0     0
SMALL
NO_CHARGES


@<TRIPOS>ATOM
      1 PB         28.2610   42.4340   48.5850 P.3       1 ADP506      0.0000 
      2 O1B        28.9210   41.7780   49.7650 O.co2     1 ADP506      0.0000 
      3 O2B        28.0420   41.5010   47.3550 O.co2     1 ADP506      0.0000 
      4 O3B        27.0220   43.2360   48.9400 O.co2     1 ADP506      0.0000 
      5 PA         30.6880   43.2960   47.4340 P.3       1 ADP506      0.0000 
      6 O1A        30.5970   43.1330   45.9400 O.co2     1 ADP506      0.0000 
      7 O2A        31.5190   42.3530   48.1830 O.co2     1 ADP506      0.0000 
      8 O3A        29.2130   43.4110   48.0280 O.3       1 ADP506      0.0000 
      9 O5'        31.0760   44.7770   47.7390 O.3       1 ADP506      0.0000 
     10 C5'        32.2880   45.2030   47.4050 C.3       1 ADP506      0.0000 
     11 C4'        32.6690   46.4780   48.0580 C.3       1 ADP506      0.0000 
     12 O4'        33.9220   46.9470   47.4750 O.3       1 ADP506      0.0000 
     13 C3'        31.6650   47.7510   48.0050 C.3       1 ADP506      0.0000 
     14 O3'        31.7440   48.5430   49.2160 O.3       1 ADP506      0.0000 
     15 C2'        32.2030   48.4100   46.7500 C.3       1 ADP506      0.0000 
     16 O2'        31.9750   49.8470   46.5770 O.3       1 ADP506      0.0000 
     17 C1'        33.6950   48.1390   46.8920 C.3       1 ADP506      0.0000 
     18 N9         34.5370   48.3970   45.7010 N.pl3     1 ADP506      0.0000 
     19 C8         34.2570   47.9880   44.4620 C.2       1 ADP506      0.0000 
     20 N7         35.1410   48.3300   43.6230 N.2       1 ADP506      0.0000 
     21 C5         36.0820   49.0310   44.3670 C.ar      1 ADP506      0.0000 
     22 C6         37.3310   49.6700   44.0590 C.ar      1 ADP506      0.0000 
     23 N6         37.8480   49.7120   42.7980 N.pl3     1 ADP506      0.0000 
     24 N1         38.0160   50.2620   45.0810 N.ar      1 ADP506      0.0000 
     25 C2         37.5060   50.2310   46.3220 C.ar      1 ADP506      0.0000 
     26 N3         36.3510   49.6520   46.7070 N.ar      1 ADP506      0.0000 
     27 C4         35.6890   49.0690   45.6740 C.ar      1 ADP506      0.0000 
     28 H          32.4078   45.3593   46.2925 H         1 ADP506      0.0000 
     29 H          33.0995   44.4566   47.6514 H         1 ADP506      0.0000 
     30 H          32.8627   46.3112   49.1358 H         1 ADP506      0.0000 
     31 H          30.7158   47.3353   47.7934 H         1 ADP506      0.0000 
     32 H          31.8757   47.8340   45.8987 H         1 ADP506      0.0000 
     33 H          34.0313   48.9585   47.6667 H         1 ADP506      0.0000 
     34 H          33.4176   47.4624   44.2535 H         1 ADP506      0.0000 
     35 H          38.0540   48.8286   42.3773 H         1 ADP506      0.0000 
     36 H          37.9756   50.6226   42.4049 H         1 ADP506      0.0000 
     37 H          38.0850   50.7255   47.1027 H         1 ADP506      0.0000 
     38 H          32.6875   48.4404   49.5311 H         1 ADP506      0.0000 
     39 H          32.8542   50.2754   46.7857 H         1 ADP506      0.0000 
@<TRIPOS>BOND
     1    2    1 ar   
     2    3    1 ar   
     3    4    1 ar   
     4    8    1 1    
     5    6    5 ar   
     6    7    5 ar   
     7    8    5 1    
     8    9    5 1    
     9   10    9 1    
    10   11   10 1    
    11   28   10 1    
    12   29   10 1    
    13   12   11 1    
    14   13   11 1    
    15   30   11 1    
    16   17   12 1    
    17   14   13 1    
    18   15   13 1    
    19   31   13 1    
    20   38   14 1    
    21   16   15 1    
    22   17   15 1    
    23   32   15 1    
    24   39   16 1    
    25   18   17 1    
    26   33   17 1    
    27   19   18 1    
    28   27   18 1    
    29   20   19 2    
    30   34   19 1    
    31   21   20 1    
    32   22   21 ar   
    33   27   21 ar   
    34   23   22 1    
    35   24   22 ar   
    36   35   23 1    
    37   36   23 1    
    38   25   24 ar   
    39   26   25 ar   
    40   37   25 1    
    41   27   26 ar   
@<TRIPOS>SUBSTRUCTURE
     1 ADP506      1 GROUP   
@<TRIPOS>SET

