#    Name: 3w2o_03P_1_INTS_M
#    Modification time : Tue Mar 25 02:06:00 2014

@<TRIPOS>MOLECULE
3w2o_03P_1_INTS_M
   87     0     6     0     0
SMALL
NO_CHARGES


@<TRIPOS>ATOM
      1 CA        -47.0015    1.4895  -22.6985 C.3       2 GLC5        0.0000 
      2 CA        -47.9830    0.1950  -21.3570 C.3       6 GLL5        0.0000 
      3 CA        -46.0200    2.7840  -24.0400 C.3       4 GLP5        0.0000 
      4 CA        -46.8250    1.5450  -28.8675 C.3       2 GLC5        0.0000 
      5 CA        -48.2450    0.7630  -29.7700 C.3       6 GLL5        0.0000 
      6 CA        -45.4050    2.3270  -27.9650 C.3       4 GLP5        0.0000 
      7 CA        -43.9950    0.8350  -20.8120 C.3       2 GLC5        0.0000 
      8 CA        -44.5230   -0.3080  -22.4320 C.3       6 GLL5        0.0000 
      9 CA        -43.4670    1.9780  -19.1920 C.3       4 GLP5        0.0000 
     10 CA        -42.7730    0.5415  -22.2380 C.3       2 GLC5        0.0000 
     11 CA        -41.0230    1.3910  -22.0440 C.3       4 GLP5        0.0000 
     12 CA        -45.2715    1.2380  -23.2360 C.3       2 GLC5        0.0000 
     13 CA        -44.1065   -1.8400  -30.1855 C.3       2 GLC5        0.0000 
     14 CA        -46.1250   -1.0680  -29.6150 C.3       6 GLL5        0.0000 
     15 CA        -42.0880   -2.6120  -30.7560 C.3       4 GLP5        0.0000 
     16 CA        -43.6425   -0.0605  -31.0835 C.3       2 GLC5        0.0000 
     17 CA        -45.7220    0.0380  -31.4200 C.3       6 GLL5        0.0000 
     18 CA        -41.5630   -0.1590  -30.7470 C.3       4 GLP5        0.0000 
     19 CA        -44.6695    1.7745  -31.6760 C.3       2 GLC5        0.0000 
     20 CA        -43.6170    3.5110  -31.9320 C.3       4 GLP5        0.0000 
     21 CA        -49.6535    2.5450  -31.3610 C.3       2 GLC5        0.0000 
     22 CA        -49.5020    1.3810  -29.6990 C.3       6 GLL5        0.0000 
     23 CA        -49.8050    3.7090  -33.0230 C.3       4 GLP5        0.0000 
     24 CA        -50.9140    5.0575  -24.9695 C.3       2 GLC5        0.0000 
     25 CA        -50.3160    4.6520  -27.0380 C.3       6 GLL5        0.0000 
     26 CA        -51.5120    5.4630  -22.9010 C.3       4 GLP5        0.0000 
     27 CA        -49.5985    6.4320  -26.3455 C.3       2 GLC5        0.0000 
     28 CA        -48.8810    8.2120  -25.6530 C.3       4 GLP5        0.0000 
     29 CA        -48.4665    4.6170  -27.4695 C.3       2 GLC5        0.0000 
     30 CA        -46.6170    4.5820  -27.9010 C.3       4 GLP5        0.0000 
     31 CA        -49.9865    5.0685  -29.1435 C.3       2 GLC5        0.0000 
     32 CA        -49.6570    5.4850  -31.2490 C.3       4 GLP5        0.0000 
     33 CA        -51.9645    4.3425  -27.6325 C.3       2 GLC5        0.0000 
     34 CA        -53.6130    4.0330  -28.2270 C.3       4 GLP5        0.0000 
     35 CA        -50.8440    4.0725  -23.9705 C.3       2 GLC5        0.0000 
     36 CA        -50.1760    2.6820  -25.0400 C.3       6 GLL5        0.0000 
     37 CA        -49.3130    2.8985  -22.5645 C.3       2 GLC5        0.0000 
     38 CA        -51.0320    1.5180  -22.3550 C.3       6 GLL5        0.0000 
     39 CA        -47.5940    4.2790  -22.7740 C.3       4 GLP5        0.0000 
     40 CA        -51.2720    3.4905  -22.6280 C.3       2 GLC5        0.0000 
     41 CA        -52.7225    0.1305  -22.5620 C.3       2 GLC5        0.0000 
     42 CA        -54.4130   -1.2570  -22.7690 C.3       4 GLP5        0.0000 
     43 CA        -52.3260    4.0480  -22.5045 C.3       2 GLC5        0.0000 
     44 CA        -53.1400    2.6330  -22.1080 C.3       6 GLL5        0.0000 
     45 CA        -54.3400    4.2595  -21.4205 C.3       2 GLC5        0.0000 
     46 CA        -55.5400    5.8860  -20.7330 C.3       4 GLP5        0.0000 
     47 CA        -55.0035    2.0360  -21.6560 C.3       2 GLC5        0.0000 
     48 CA        -56.8670    1.4390  -21.2040 C.3       4 GLP5        0.0000 
     49 CA        -53.7765    0.6880  -22.4385 C.3       2 GLC5        0.0000 
     50 CA        -51.7435    3.7230  -21.5555 C.3       2 GLC5        0.0000 
     51 CA        -51.9750    1.9830  -20.2100 C.3       6 GLL5        0.0000 
     52 CA        -54.1235    1.6455  -20.0000 C.3       2 GLC5        0.0000 
     53 CA        -56.2720    1.3080  -19.7900 C.3       4 GLP5        0.0000 
     54 N         -54.3620    3.1375  -20.2170 N.am      1 SEC2        0.0000 
     55 N         -53.0580    2.5730  -20.7680 N.am      5 SEL2        0.0000 
     56 N         -55.6660    3.7020  -19.6660 N.am      3 SEP2        0.0000 
     57 CA        -51.9472   -0.0010  -17.6390 C.3       2 GLC5        0.0000 
     58 CA        -51.7780    1.8470  -18.8100 C.3       6 GLL5        0.0000 
     59 CA        -52.7210   -1.5180  -16.4800 C.3       4 GLP5        0.0000 
     60 CA        -48.8470    3.1515  -23.7865 C.3       2 GLC5        0.0000 
     61 CA        -50.0240    1.3660  -24.5580 C.3       6 GLL5        0.0000 
     62 CA        -48.3007    3.5215  -27.3872 C.3       2 GLC5        0.0000 
     63 CA        -50.1080    2.9710  -26.4140 C.3       6 GLL5        0.0000 
     64 CA        -51.8438   -0.2735  -30.8712 C.3       2 GLC5        0.0000 
     65 CA        -50.4560    1.0930  -30.6780 C.3       6 GLL5        0.0000 
     66 CA        -53.3790   -1.1940  -30.5480 C.3       4 GLP5        0.0000 
     67 CA        -51.6825    1.7440  -29.2222 C.3       2 GLC5        0.0000 
     68 CA        -53.3860    2.2510  -28.2560 C.3       4 GLP5        0.0000 
     69 CA        -47.5250    0.7025  -32.9665 C.3       2 GLC5        0.0000 
     70 CA        -48.9080   -0.4120  -31.7680 C.3       6 GLL5        0.0000 
     71 CA        -46.6250    1.6820  -34.6530 C.3       4 GLP5        0.0000 
     72 CA        -45.7203    0.9401  -29.3945 C.3       2 GLC5        0.0000 
     73 CA        -46.5730   -0.7950  -30.8410 C.3       6 GLL5        0.0000 
     74 CA        -45.5357   -0.4138  -32.9819 C.3       2 GLC5        0.0000 
     75 CA        -44.9130   -0.1690  -34.6540 C.3       4 GLP5        0.0000 
     76 CA        -50.5093   -1.3407  -32.7043 C.3       2 GLC5        0.0000 
     77 CA        -51.4840   -2.5760  -33.6690 C.3       4 GLP5        0.0000 
     78 CA        -49.7066    1.9133  -32.2521 C.3       2 GLC5        0.0000 
     79 CA        -50.1610    0.2010  -31.7110 C.3       6 GLL5        0.0000 
     80 CA        -51.6156    1.8990  -27.5611 C.3       2 GLC5        0.0000 
     81 CA        -49.7060    0.6330  -26.8590 C.3       6 GLL5        0.0000 
     82 CA        -42.6524   -1.3425  -24.1426 C.3       2 GLC5        0.0000 
     83 CA        -44.6500   -1.6960  -23.0550 C.3       6 GLL5        0.0000 
     84 CA        -40.8030   -1.3710  -24.6320 C.3       4 GLP5        0.0000 
     85 CA        -50.4121    3.3521  -19.3788 C.3       2 GLC5        0.0000 
     86 CA        -50.9470    1.4420  -20.9520 C.3       6 GLL5        0.0000 
     87 CA        -49.5070    5.0900  -19.0680 C.3       4 GLP5        0.0000 
@<TRIPOS>BOND
@<TRIPOS>SUBSTRUCTURE
     1 SEC2       54 GROUP        1 X    SEC  0     ROOT SEC X 2
     2 GLC5        1 GROUP        1 X    GLC  0     **** GLC X 6
     3 SEP2       56 GROUP        1 Y    SEP  0     ROOT SEP Y 9
     4 GLP5        3 GROUP        1 Y    GLP  0     **** GLP Y 13
     5 SEL2       55 GROUP        1 Z    SEL  0     ROOT SEL Z 16
     6 GLL5        2 GROUP        1 Z    GLL  0     **** GLL Z 20
@<TRIPOS>SET

