#    Name: 3w2o_03P_1_ligand
#    Modification time : Tue Mar 25 02:06:00 2014

@<TRIPOS>MOLECULE
3w2o_03P_1_ligand
   63    66     1     0     0
SMALL
NO_CHARGES


@<TRIPOS>ATOM
      1 N1        -52.1510    2.1220  -22.8700 N.ar      1 03P1101     0.0000 
      2 N3        -47.8660   -1.1650  -21.8410 N.am      1 03P1101     0.0000 
      3 C4        -50.5690    1.1850  -18.7860 C.2       1 03P1101     0.0000 
      4 C5        -51.7780    1.8470  -18.8100 C.2       1 03P1101     0.0000 
      5 C6        -48.7720    0.2360  -20.0680 C.3       1 03P1101     0.0000 
      6 C7        -47.9830    0.1950  -21.3570 C.3       1 03P1101     0.0000 
      7 C8        -47.1420   -1.4080  -22.9260 C.2       1 03P1101     0.0000 
      8 C10       -50.0240    1.3660  -24.5580 C.ar      1 03P1101     0.0000 
      9 C13       -49.8610    1.9510  -27.3330 C.ar      1 03P1101     0.0000 
     10 C15       -49.7870    0.3510  -25.4890 C.ar      1 03P1101     0.0000 
     11 C17       -50.4560    1.0930  -30.6780 C.ar      1 03P1101     0.0000 
     12 C20       -47.9420   -0.1420  -30.7920 C.ar      1 03P1101     0.0000 
     13 C21       -48.2450    0.7630  -29.7700 C.ar      1 03P1101     0.0000 
     14 C22       -46.5730   -0.7950  -30.8410 C.3       1 03P1101     0.0000 
     15 C24       -44.5230   -0.3080  -22.4320 C.3       1 03P1101     0.0000 
     16 F2        -46.1250   -1.0680  -29.6150 F         1 03P1101     0.0000 
     17 F         -46.6170   -1.9150  -31.5580 F         1 03P1101     0.0000 
     18 F1        -45.7220    0.0380  -31.4200 F         1 03P1101     0.0000 
     19 C19       -48.9080   -0.4120  -31.7680 C.ar      1 03P1101     0.0000 
     20 C18       -50.1610    0.2010  -31.7110 C.ar      1 03P1101     0.0000 
     21 C16       -49.5020    1.3810  -29.6990 C.ar      1 03P1101     0.0000 
     22 O1        -49.7910    2.2800  -28.6820 O.3       1 03P1101     0.0000 
     23 C12       -50.1080    2.9710  -26.4140 C.ar      1 03P1101     0.0000 
     24 CL        -50.3160    4.6520  -27.0380 Cl        1 03P1101     0.0000 
     25 C11       -50.1760    2.6820  -25.0400 C.ar      1 03P1101     0.0000 
     26 C14       -49.7060    0.6330  -26.8590 C.ar      1 03P1101     0.0000 
     27 N4        -50.1010    1.0380  -23.2180 N.pl3     1 03P1101     0.0000 
     28 C1        -51.0320    1.5180  -22.3550 C.ar      1 03P1101     0.0000 
     29 C         -53.1400    2.6330  -22.1080 C.ar      1 03P1101     0.0000 
     30 C3        -50.9470    1.4420  -20.9520 C.ar      1 03P1101     0.0000 
     31 C2        -51.9750    1.9830  -20.2100 C.ar      1 03P1101     0.0000 
     32 N         -53.0580    2.5730  -20.7680 N.ar      1 03P1101     0.0000 
     33 N2        -50.0630    0.9450  -20.0260 N.pl3     1 03P1101     0.0000 
     34 O         -47.3620   -0.8710  -24.0020 O.2       1 03P1101     0.0000 
     35 C9        -45.9910   -2.3740  -22.7610 C.3       1 03P1101     0.0000 
     36 C23       -44.6500   -1.6960  -23.0550 C.3       1 03P1101     0.0000 
     37 O2        -43.6160   -2.4950  -22.4780 O.3       1 03P1101     0.0000 
     38 C25       -44.4170   -1.6260  -24.5630 C.3       1 03P1101     0.0000 
     39 H         -48.3582   -1.8934  -21.3122 H         1 03P1101     0.0000 
     40 H         -50.1214    0.9152  -17.9456 H         1 03P1101     0.0000 
     41 H         -52.3113    2.1254  -18.1454 H         1 03P1101     0.0000 
     42 H         -48.0912    0.6567  -19.2619 H         1 03P1101     0.0000 
     43 H         -48.9260   -0.8360  -19.7254 H         1 03P1101     0.0000 
     44 H         -48.4910    0.8319  -22.0945 H         1 03P1101     0.0000 
     45 H         -46.9921    0.6320  -21.1707 H         1 03P1101     0.0000 
     46 H         -49.6696   -0.6218  -25.1639 H         1 03P1101     0.0000 
     47 H         -51.3815    1.5410  -30.6374 H         1 03P1101     0.0000 
     48 H         -47.5327    0.9811  -29.0548 H         1 03P1101     0.0000 
     49 H         -48.6919   -1.0666  -32.5317 H         1 03P1101     0.0000 
     50 H         -50.8658   -0.0040  -32.4287 H         1 03P1101     0.0000 
     51 H         -50.3407    3.4486  -24.3683 H         1 03P1101     0.0000 
     52 H         -49.5316   -0.1277  -27.5289 H         1 03P1101     0.0000 
     53 H         -49.3690    0.3552  -22.8428 H         1 03P1101     0.0000 
     54 H         -53.9692    3.0752  -22.5621 H         1 03P1101     0.0000 
     55 H         -46.1180   -3.2168  -23.4438 H         1 03P1101     0.0000 
     56 H         -45.9766   -2.7570  -21.7384 H         1 03P1101     0.0000 
     57 H         -43.6396    0.1125  -22.6388 H         1 03P1101     0.0000 
     58 H         -45.2298    0.3153  -22.7665 H         1 03P1101     0.0000 
     59 H         -44.6069   -0.3389  -21.4360 H         1 03P1101     0.0000 
     60 H         -43.5085   -1.2704  -24.7823 H         1 03P1101     0.0000 
     61 H         -44.4909   -2.5261  -24.9924 H         1 03P1101     0.0000 
     62 H         -45.0816   -1.0305  -25.0142 H         1 03P1101     0.0000 
     63 H         -42.8227   -1.8889  -22.4199 H         1 03P1101     0.0000 
@<TRIPOS>BOND
     1   28    1 ar   
     2   29    1 ar   
     3    6    2 1    
     4    7    2 am   
     5   39    2 1    
     6    4    3 2    
     7   33    3 1    
     8   40    3 1    
     9   31    4 1    
    10   41    4 1    
    11    6    5 1    
    12   33    5 1    
    13   42    5 1    
    14   43    5 1    
    15   44    6 1    
    16   45    6 1    
    17   34    7 2    
    18   35    7 1    
    19   10    8 ar   
    20   25    8 ar   
    21   27    8 1    
    22   22    9 1    
    23   23    9 ar   
    24   26    9 ar   
    25   26   10 ar   
    26   46   10 1    
    27   20   11 ar   
    28   21   11 ar   
    29   47   11 1    
    30   13   12 ar   
    31   14   12 1    
    32   19   12 ar   
    33   21   13 ar   
    34   48   13 1    
    35   16   14 1    
    36   17   14 1    
    37   18   14 1    
    38   36   15 1    
    39   57   15 1    
    40   58   15 1    
    41   59   15 1    
    42   20   19 ar   
    43   49   19 1    
    44   50   20 1    
    45   22   21 1    
    46   24   23 1    
    47   25   23 ar   
    48   51   25 1    
    49   52   26 1    
    50   28   27 1    
    51   53   27 1    
    52   30   28 ar   
    53   32   29 ar   
    54   54   29 1    
    55   31   30 ar   
    56   33   30 1    
    57   32   31 ar   
    58   36   35 1    
    59   55   35 1    
    60   56   35 1    
    61   37   36 1    
    62   38   36 1    
    63   63   37 1    
    64   60   38 1    
    65   61   38 1    
    66   62   38 1    
@<TRIPOS>SUBSTRUCTURE
     1 03P1101     1 GROUP   
@<TRIPOS>SET

