#    Name: 3ves_APC_2_INTS_M
#    Modification time : Tue Mar 25 00:42:11 2014

@<TRIPOS>MOLECULE
3ves_APC_2_INTS_M
   66     0    15     0     0
SMALL
NO_CHARGES


@<TRIPOS>ATOM
      1 NZ         35.0975   32.9550   11.6620 N.4       3 LYC4        0.0000 
      2 NZ         34.5070   31.5220   10.7840 N.4      13 LYL4        0.0000 
      3 NZ         35.6880   34.3880   12.5400 N.4       8 LYP4        0.0000 
      4 N          34.3365   32.6475    9.7195 N.am      2 SEC2        0.0000 
      5 N          34.5070   31.5220   10.7840 N.am     12 SEL2        0.0000 
      6 N          34.1660   33.7730    8.6550 N.am      7 SEP2        0.0000 
      7 NZ         34.5790   33.6615   12.5320 N.4       3 LYC4        0.0000 
      8 NZ         33.4700   32.9350   12.5240 N.4      13 LYL4        0.0000 
      9 Zn         32.5890   33.7495   12.7650 Zn        4 ZIC7        0.0000 
     10 Zn         33.4700   32.9350   12.5240 Zn       14 ZIL7        0.0000 
     11 Zn         31.7080   34.5640   13.0060 Zn        9 ZIP7        0.0000 
     12 N          34.0400   32.2675   13.7445 N.am      2 SEC2        0.0000 
     13 N          33.4700   32.9350   12.5240 N.am     12 SEL2        0.0000 
     14 N          34.6100   31.6000   14.9650 N.am      7 SEP2        0.0000 
     15 N          34.5790   33.6615   12.5320 N.am      2 SEC2        0.0000 
     16 N          35.6880   34.3880   12.5400 N.am      7 SEP2        0.0000 
     17 N          33.6665   31.1070   13.5925 N.am      2 SEC2        0.0000 
     18 N          32.7230   30.6140   12.2200 N.am     12 SEL2        0.0000 
     19 N          33.1725   29.1730   12.3890 N.am      2 SEC2        0.0000 
     20 N          33.6220   27.7320   12.5580 N.am      7 SEP2        0.0000 
     21 N          29.5555   35.2025   10.7705 N.am      2 SEC2        0.0000 
     22 N          30.9070   34.4690   10.1380 N.am     12 SEL2        0.0000 
     23 N          28.2040   35.9360   11.4030 N.am      7 SEP2        0.0000 
     24 Zn         30.9455   33.6520   12.4375 Zn        4 ZIC7        0.0000 
     25 Zn         30.1830   32.7400   11.8690 Zn       14 ZIL7        0.0000 
     26 NZ         27.9060   34.6005   11.1715 N.4       3 LYC4        0.0000 
     27 NZ         27.6080   33.2650   10.9400 N.4      13 LYL4        0.0000 
     28 NZ         27.6150   37.1290   11.4510 N.4       8 LYP4        0.0000 
     29 N          27.9060   34.6005   11.1715 N.am      2 SEC2        0.0000 
     30 N          27.6080   33.2650   10.9400 N.am     12 SEL2        0.0000 
     31 CA         26.5295   35.9690    5.7290 C.3       5 GLC5        0.0000 
     32 CA         28.2100   34.8590    6.5870 C.3      15 GLL5        0.0000 
     33 CA         24.8490   37.0790    4.8710 C.3      10 GLP5        0.0000 
     34 N          30.7145   32.7840    5.0900 N.am      2 SEC2        0.0000 
     35 N          29.3420   33.7030    4.8560 N.am     12 SEL2        0.0000 
     36 N          32.0870   31.8650    5.3240 N.am      7 SEP2        0.0000 
     37 O          28.0720   33.3055    4.7035 O.2       1 ALC1        0.0000 
     38 O          29.3420   33.7030    4.8560 O.2      11 ALL1        0.0000 
     39 O          26.8020   32.9080    4.5510 O.2       6 ALP1        0.0000 
     40 CA         26.9185   36.7595    5.0325 C.3       5 GLC5        0.0000 
     41 CA         28.9880   36.4400    5.1940 C.3      15 GLL5        0.0000 
     42 CA         27.2265   41.5810    2.9065 C.3       5 GLC5        0.0000 
     43 CA         28.8160   40.5190    2.4840 C.3      15 GLL5        0.0000 
     44 CA         25.6370   42.6430    3.3290 C.3      10 GLP5        0.0000 
     45 CA         29.3285   39.8200    0.7340 C.3       5 GLC5        0.0000 
     46 CA         29.8410   39.1210   -1.0160 C.3      10 GLP5        0.0000 
     47 O          28.8650   42.3655    0.9910 O.2       1 ALC1        0.0000 
     48 O          29.2930   41.8850    2.3790 O.2      11 ALL1        0.0000 
     49 O          28.4370   42.8460   -0.3970 O.2       6 ALP1        0.0000 
     50 CA         25.8095   37.4160    2.0170 C.3       5 GLC5        0.0000 
     51 CA         27.5320   38.7290    1.6280 C.3      15 GLL5        0.0000 
     52 CA         24.0870   36.1030    2.4060 C.3      10 GLP5        0.0000 
     53 CA         28.0180   36.6055    1.3900 C.3       5 GLC5        0.0000 
     54 CA         28.5040   34.4820    1.1520 C.3      10 GLP5        0.0000 
     55 CA         29.6540   38.1555    2.0335 C.3       5 GLC5        0.0000 
     56 CA         31.7760   37.5820    2.4390 C.3      10 GLP5        0.0000 
     57 CA         28.6865   38.9250    0.3060 C.3       5 GLC5        0.0000 
     58 CA         26.7850   37.7355    4.2530 C.3       5 GLC5        0.0000 
     59 CA         28.7210   38.3920    3.6350 C.3      15 GLL5        0.0000 
     60 CA         26.7195   33.4695    6.7820 C.3       5 GLC5        0.0000 
     61 CA         25.2490   32.2020    6.2400 C.3      10 GLP5        0.0000 
     62 CA         30.6707   36.8210    3.9460 C.3       5 GLC5        0.0000 
     63 CA         28.6552   41.4982    4.6415 C.3       5 GLC5        0.0000 
     64 CA         29.2070   39.7140    3.5680 C.3      15 GLL5        0.0000 
     65 CA         28.2990   42.8800    6.2570 C.3      10 GLP5        0.0000 
     66 CA         30.3211   38.4181    2.8847 C.3       5 GLC5        0.0000 
@<TRIPOS>BOND
@<TRIPOS>SUBSTRUCTURE
     1 ALC1       37 GROUP        1 X    ALC  0     ROOT ALC X 1
     2 SEC2        4 GROUP        1 X    SEC  0     **** SEC X 2
     3 LYC4        1 GROUP        1 X    LYC  0     **** LYC X 4
     4 ZIC7        9 GROUP        1 X    ZIC  0     **** ZIC X 5
     5 GLC5       31 GROUP        1 X    GLC  0     **** GLC X 6
     6 ALP1       39 GROUP        1 Y    ALP  0     ROOT ALP Y 8
     7 SEP2        6 GROUP        1 Y    SEP  0     **** SEP Y 9
     8 LYP4        3 GROUP        1 Y    LYP  0     **** LYP Y 11
     9 ZIP7       11 GROUP        1 Y    ZIP  0     **** ZIP Y 12
    10 GLP5       33 GROUP        1 Y    GLP  0     **** GLP Y 13
    11 ALL1       38 GROUP        1 Z    ALL  0     ROOT ALL Z 15
    12 SEL2        5 GROUP        1 Z    SEL  0     **** SEL Z 16
    13 LYL4        2 GROUP        1 Z    LYL  0     **** LYL Z 18
    14 ZIL7       10 GROUP        1 Z    ZIL  0     **** ZIL Z 19
    15 GLL5       32 GROUP        1 Z    GLL  0     **** GLL Z 20
@<TRIPOS>SET

