#    Name: 3ves_APC_2_ligand
#    Modification time : Tue Mar 25 00:42:11 2014

@<TRIPOS>MOLECULE
3ves_APC_2_ligand
   45    47     1     0     0
SMALL
NO_CHARGES


@<TRIPOS>ATOM
      1 PG         33.1880   31.8450   11.5250 P.3       1 APC602      0.0000 
      2 O1G        34.5070   31.5220   10.7840 O.co2     1 APC602      0.0000 
      3 O2G        33.4700   32.9350   12.5240 O.co2     1 APC602      0.0000 
      4 O3G        32.7230   30.6140   12.2200 O.co2     1 APC602      0.0000 
      5 PB         30.8060   32.9420   10.4810 P.3       1 APC602      0.0000 
      6 O1B        30.9070   34.4690   10.1380 O.co2     1 APC602      0.0000 
      7 O2B        30.1830   32.7400   11.8690 O.co2     1 APC602      0.0000 
      8 O3B        32.1830   32.2470   10.3860 O.3       1 APC602      0.0000 
      9 PA         27.8480   32.5710    9.5670 P.3       1 APC602      0.0000 
     10 O1A        26.9530   31.3210    9.4540 O.co2     1 APC602      0.0000 
     11 O2A        27.6080   33.2650   10.9400 O.co2     1 APC602      0.0000 
     12 C3A        29.6180   32.0690    9.3920 C.3       1 APC602      0.0000 
     13 O5'        27.3810   33.5470    8.4300 O.3       1 APC602      0.0000 
     14 C5'        28.1700   34.6150    8.0610 C.3       1 APC602      0.0000 
     15 C4'        28.2100   34.8590    6.5870 C.3       1 APC602      0.0000 
     16 O4'        28.0210   36.2020    6.2660 O.3       1 APC602      0.0000 
     17 C3'        29.5210   34.4530    6.0710 C.3       1 APC602      0.0000 
     18 O3'        29.3420   33.7030    4.8560 O.3       1 APC602      0.0000 
     19 C2'        30.1430   35.6800    5.7120 C.3       1 APC602      0.0000 
     20 O2'        31.0540   35.3860    4.7350 O.3       1 APC602      0.0000 
     21 C1'        28.9880   36.4400    5.1940 C.3       1 APC602      0.0000 
     22 N9         29.2560   37.8480    4.7640 N.pl3     1 APC602      0.0000 
     23 C8         30.0370   38.7860    5.3770 C.2       1 APC602      0.0000 
     24 N7         30.0090   39.9240    4.6570 N.2       1 APC602      0.0000 
     25 C5         29.2070   39.7140    3.5680 C.ar      1 APC602      0.0000 
     26 C6         28.8160   40.5190    2.4840 C.ar      1 APC602      0.0000 
     27 N6         29.2930   41.8850    2.3790 N.pl3     1 APC602      0.0000 
     28 N1         27.9800   40.0060    1.5370 N.ar      1 APC602      0.0000 
     29 C2         27.5320   38.7290    1.6280 C.ar      1 APC602      0.0000 
     30 N3         27.8860   37.9270    2.6500 N.ar      1 APC602      0.0000 
     31 C4         28.7210   38.3920    3.6350 C.ar      1 APC602      0.0000 
     32 H          29.6605   31.0547    9.6502 H         1 APC602      0.0000 
     33 H          29.8894   32.2954    8.4059 H         1 APC602      0.0000 
     34 H          29.2317   34.4897    8.4064 H         1 APC602      0.0000 
     35 H          27.8346   35.5705    8.5474 H         1 APC602      0.0000 
     36 H          27.4540   34.2309    6.1169 H         1 APC602      0.0000 
     37 H          30.0639   33.9356    6.7912 H         1 APC602      0.0000 
     38 H          30.5294   36.1542    6.5625 H         1 APC602      0.0000 
     39 H          28.6215   35.8467    4.3105 H         1 APC602      0.0000 
     40 H          30.5285   38.6447    6.1987 H         1 APC602      0.0000 
     41 H          28.9530   42.4111    1.5995 H         1 APC602      0.0000 
     42 H          29.9224   42.1875    3.0948 H         1 APC602      0.0000 
     43 H          26.8916   38.3596    0.8786 H         1 APC602      0.0000 
     44 H          28.3974   33.8800    4.5796 H         1 APC602      0.0000 
     45 H          30.6619   34.6102    4.2407 H         1 APC602      0.0000 
@<TRIPOS>BOND
     1    2    1 ar   
     2    3    1 ar   
     3    4    1 ar   
     4    8    1 1    
     5    6    5 ar   
     6    7    5 ar   
     7    8    5 1    
     8   12    5 1    
     9   10    9 ar   
    10   11    9 ar   
    11   12    9 1    
    12   13    9 1    
    13   32   12 1    
    14   33   12 1    
    15   14   13 1    
    16   15   14 1    
    17   34   14 1    
    18   35   14 1    
    19   16   15 1    
    20   17   15 1    
    21   36   15 1    
    22   21   16 1    
    23   18   17 1    
    24   19   17 1    
    25   37   17 1    
    26   44   18 1    
    27   20   19 1    
    28   21   19 1    
    29   38   19 1    
    30   45   20 1    
    31   22   21 1    
    32   39   21 1    
    33   23   22 1    
    34   31   22 1    
    35   24   23 2    
    36   40   23 1    
    37   25   24 1    
    38   26   25 ar   
    39   31   25 ar   
    40   27   26 1    
    41   28   26 ar   
    42   41   27 1    
    43   42   27 1    
    44   29   28 ar   
    45   30   29 ar   
    46   43   29 1    
    47   31   30 ar   
@<TRIPOS>SUBSTRUCTURE
     1 APC602      1 GROUP   
@<TRIPOS>SET

