#    Name: 2e1w_FR6_1_INTS_M
#    Modification time : Mon Apr  7 17:36:44 2014

@<TRIPOS>MOLECULE
2e1w_FR6_1_INTS_M
   57     0     9     0     0
SMALL
NO_CHARGES


@<TRIPOS>ATOM
      1 CA         53.2465   54.1475   22.3310 C.3       3 GLC5        0.0000 
      2 CA         51.5270   54.5190   20.9790 C.3       9 GLL5        0.0000 
      3 CA         54.9660   53.7760   23.6830 C.3       6 GLP5        0.0000 
      4 N          51.5205   52.8440   24.2580 N.am      2 SEC2        0.0000 
      5 N          51.4810   53.5840   23.0650 N.am      8 SEL2        0.0000 
      6 N          51.5600   52.1040   25.4510 N.am      5 SEP2        0.0000 
      7 CA         53.2955   52.8925   22.4165 C.3       3 GLC5        0.0000 
      8 CA         51.5360   53.3320   21.6090 C.3       9 GLL5        0.0000 
      9 CA         55.0550   52.4530   23.2240 C.3       6 GLP5        0.0000 
     10 O          51.2205   49.5525   21.2820 O.2       1 ALC1        0.0000 
     11 O          51.1200   50.9800   21.7510 O.2       7 ALL1        0.0000 
     12 O          51.3210   48.1250   20.8130 O.2       4 ALP1        0.0000 
     13 CA         49.9720   56.3415   23.3150 C.3       3 GLC5        0.0000 
     14 CA         51.5520   56.9910   21.8560 C.3       9 GLL5        0.0000 
     15 CA         48.3920   55.6920   24.7740 C.3       6 GLP5        0.0000 
     16 N          54.5570   55.8975   22.7755 N.am      2 SEC2        0.0000 
     17 N          53.9690   57.2110   22.9310 N.am      8 SEL2        0.0000 
     18 N          55.1450   54.5840   22.6200 N.am      5 SEP2        0.0000 
     19 O          53.3880   57.4950   24.1350 O.2       1 ALC1        0.0000 
     20 O          53.9690   57.2110   22.9310 O.2       7 ALL1        0.0000 
     21 O          52.8070   57.7790   25.3390 O.2       4 ALP1        0.0000 
     22 CA         50.9350   58.3170   18.9650 C.3       3 GLC5        0.0000 
     23 CA         50.6710   57.4600   20.6780 C.3       9 GLL5        0.0000 
     24 CA         51.1990   59.1740   17.2520 C.3       6 GLP5        0.0000 
     25 CA         48.7015   55.9645   22.3965 C.3       3 GLC5        0.0000 
     26 CA         49.1300   57.3580   20.8840 C.3       9 GLL5        0.0000 
     27 CA         48.2730   54.5710   23.9090 C.3       6 GLP5        0.0000 
     28 CA         48.2595   54.5480   14.4720 C.3       3 GLC5        0.0000 
     29 CA         48.0980   55.4130   16.1710 C.3       9 GLL5        0.0000 
     30 CA         48.4210   53.6830   12.7730 C.3       6 GLP5        0.0000 
     31 CA         55.9135   57.4620   20.4785 C.3       3 GLC5        0.0000 
     32 CA         53.8140   57.3180   20.4920 C.3       9 GLL5        0.0000 
     33 CA         58.0130   57.6060   20.4650 C.3       6 GLP5        0.0000 
     34 CA         53.3960   58.3190   18.9380 C.3       3 GLC5        0.0000 
     35 CA         52.9780   59.3200   17.3840 C.3       6 GLP5        0.0000 
     36 CA         54.4745   56.5850   18.9825 C.3       3 GLC5        0.0000 
     37 CA         55.1350   55.8520   17.4730 C.3       6 GLP5        0.0000 
     38 CA         50.1508   59.3840   20.6710 C.3       3 GLC5        0.0000 
     39 CA         50.4010   61.3590   20.5610 C.3       6 GLP5        0.0000 
     40 CA         46.2047   57.9970   19.2443 C.3       3 GLC5        0.0000 
     41 CA         48.0220   59.1820   19.5170 C.3       9 GLL5        0.0000 
     42 CA         44.1900   57.4850   18.9170 C.3       6 GLP5        0.0000 
     43 CA         49.7092   58.8415   18.4117 C.3       3 GLC5        0.0000 
     44 CA         45.8505   58.3933   18.3330 C.3       3 GLC5        0.0000 
     45 CA         47.5180   59.7000   18.3220 C.3       9 GLL5        0.0000 
     46 CA         49.1349   60.2317   19.7539 C.3       3 GLC5        0.0000 
     47 CA         49.3550   59.2377   17.5005 C.3       3 GLC5        0.0000 
     48 CA         46.5983   56.2605   17.9955 C.3       3 GLC5        0.0000 
     49 CA         47.9030   57.5590   17.2590 C.3       9 GLL5        0.0000 
     50 CA         45.0510   55.2280   18.1290 C.3       6 GLP5        0.0000 
     51 CA         46.4905   55.6585   17.1343 C.3       3 GLC5        0.0000 
     52 CA         49.5764   58.1015   17.1185 C.3       3 GLC5        0.0000 
     53 CA         47.7620   56.7650   16.1080 C.3       9 GLL5        0.0000 
     54 CA         46.8250   55.2350   18.0398 C.3       3 GLC5        0.0000 
     55 CA         48.6780   55.6420   18.5240 C.3       9 GLL5        0.0000 
     56 CA         49.8541   55.5829   16.3489 C.3       3 GLC5        0.0000 
     57 CA         51.4260   55.4010   15.5090 C.3       6 GLP5        0.0000 
@<TRIPOS>BOND
@<TRIPOS>SUBSTRUCTURE
     1 ALC1       10 GROUP        1 X    ALC  0     ROOT ALC X 1
     2 SEC2        4 GROUP        1 X    SEC  0     **** SEC X 2
     3 GLC5        1 GROUP        1 X    GLC  0     **** GLC X 6
     4 ALP1       12 GROUP        1 Y    ALP  0     ROOT ALP Y 8
     5 SEP2        6 GROUP        1 Y    SEP  0     **** SEP Y 9
     6 GLP5        3 GROUP        1 Y    GLP  0     **** GLP Y 13
     7 ALL1       11 GROUP        1 Z    ALL  0     ROOT ALL Z 15
     8 SEL2        5 GROUP        1 Z    SEL  0     **** SEL Z 16
     9 GLL5        2 GROUP        1 Z    GLL  0     **** GLL Z 20
@<TRIPOS>SET

