#    Name: 2e1w_FR6_1_ligand
#    Modification time : Mon Apr  7 17:36:44 2014

@<TRIPOS>MOLECULE
2e1w_FR6_1_ligand
   45    47     1     0     0
SMALL
NO_CHARGES


@<TRIPOS>ATOM
      1 C1         51.5270   54.5190   20.9790 C.2       1 FR61        0.0000 
      2 N2         51.4640   55.5440   22.0340 N.pl3     1 FR61        0.0000 
      3 C3         51.3380   54.9180   23.2050 C.2       1 FR61        0.0000 
      4 N4         51.4810   53.5840   23.0650 N.2       1 FR61        0.0000 
      5 C5         51.5360   53.3320   21.6090 C.2       1 FR61        0.0000 
      6 C8         51.5700   51.9650   21.0070 C.2       1 FR61        0.0000 
      7 O9         52.0650   51.6940   19.9230 O.2       1 FR61        0.0000 
      8 N10        51.1200   50.9800   21.7510 N.am      1 FR61        0.0000 
      9 C13        51.5520   56.9910   21.8560 C.3       1 FR61        0.0000 
     10 C14        53.0510   57.5330   21.8270 C.3       1 FR61        0.0000 
     11 O15        53.9690   57.2110   22.9310 O.3       1 FR61        0.0000 
     12 C18        50.6710   57.4600   20.6780 C.3       1 FR61        0.0000 
     13 C19        49.1300   57.3580   20.8840 C.3       1 FR61        0.0000 
     14 C22        48.4170   57.8360   19.6260 C.ar      1 FR61        0.0000 
     15 C25        48.0220   59.1820   19.5170 C.ar      1 FR61        0.0000 
     16 C26        47.5180   59.7000   18.3220 C.ar      1 FR61        0.0000 
     17 C27        47.5040   58.9030   17.1760 C.ar      1 FR61        0.0000 
     18 C28        47.9030   57.5590   17.2590 C.ar      1 FR61        0.0000 
     19 C29        48.3880   57.0270   18.4650 C.ar      1 FR61        0.0000 
     20 C2         47.7620   56.7650   16.1080 C.ar      1 FR61        0.0000 
     21 C4         48.6780   55.6420   18.5240 C.ar      1 FR61        0.0000 
     22 C6         48.0980   55.4130   16.1710 C.ar      1 FR61        0.0000 
     23 C7         48.5200   54.8420   17.3770 C.ar      1 FR61        0.0000 
     24 C9         53.8140   57.3180   20.4920 C.3       1 FR61        0.0000 
     25 H          51.5528   54.7301   20.0733 H         1 FR61        0.0000 
     26 H          51.1627   55.3655   24.0673 H         1 FR61        0.0000 
     27 H          51.1780   50.0650   21.3517 H         1 FR61        0.0000 
     28 H          50.7606   51.2353   22.6486 H         1 FR61        0.0000 
     29 H          51.0948   57.4708   22.7810 H         1 FR61        0.0000 
     30 H          52.9306   58.6978   21.8574 H         1 FR61        0.0000 
     31 H          50.9392   56.8732   19.7771 H         1 FR61        0.0000 
     32 H          50.9199   58.5144   20.4450 H         1 FR61        0.0000 
     33 H          48.8531   57.9786   21.7238 H         1 FR61        0.0000 
     34 H          48.8768   56.3268   21.0828 H         1 FR61        0.0000 
     35 H          48.1087   59.7987   20.3439 H         1 FR61        0.0000 
     36 H          47.1609   60.6588   18.2869 H         1 FR61        0.0000 
     37 H          47.2053   59.2923   16.2786 H         1 FR61        0.0000 
     38 H          47.4184   57.1763   15.2414 H         1 FR61        0.0000 
     39 H          49.0010   55.2282   19.3994 H         1 FR61        0.0000 
     40 H          48.0359   54.8289   15.3255 H         1 FR61        0.0000 
     41 H          48.7159   53.8362   17.4287 H         1 FR61        0.0000 
     42 H          54.7472   57.6746   20.5360 H         1 FR61        0.0000 
     43 H          53.8814   56.3489   20.2547 H         1 FR61        0.0000 
     44 H          53.3609   57.7762   19.7273 H         1 FR61        0.0000 
     45 H          53.4724   57.4620   23.7619 H         1 FR61        0.0000 
@<TRIPOS>BOND
     1    2    1 1    
     2    5    1 2    
     3   25    1 1    
     4    3    2 1    
     5    9    2 1    
     6    4    3 2    
     7   26    3 1    
     8    5    4 1    
     9    6    5 1    
    10    7    6 2    
    11    8    6 am   
    12   27    8 1    
    13   28    8 1    
    14   10    9 1    
    15   12    9 1    
    16   29    9 1    
    17   11   10 1    
    18   24   10 1    
    19   30   10 1    
    20   45   11 1    
    21   13   12 1    
    22   31   12 1    
    23   32   12 1    
    24   14   13 1    
    25   33   13 1    
    26   34   13 1    
    27   15   14 ar   
    28   19   14 ar   
    29   16   15 ar   
    30   35   15 1    
    31   17   16 ar   
    32   36   16 1    
    33   18   17 ar   
    34   37   17 1    
    35   19   18 ar   
    36   20   18 ar   
    37   21   19 ar   
    38   22   20 ar   
    39   38   20 1    
    40   23   21 ar   
    41   39   21 1    
    42   23   22 ar   
    43   40   22 1    
    44   41   23 1    
    45   42   24 1    
    46   43   24 1    
    47   44   24 1    
@<TRIPOS>SUBSTRUCTURE
     1 FR61        1 GROUP   
@<TRIPOS>SET

