#    Name: 2aw1_COX_1_INTS_M
#    Modification time : Mon Mar 24 19:40:59 2014

@<TRIPOS>MOLECULE
2aw1_COX_1_INTS_M
   46     0    12     0     0
SMALL
NO_CHARGES


@<TRIPOS>ATOM
      1 N          -3.9145    0.7300   18.3845 N.am      2 SEC2        0.0000 
      2 N          -5.1630    1.1480   17.9040 N.am     10 SEL2        0.0000 
      3 N          -2.6660    0.3120   18.8650 N.am      6 SEP2        0.0000 
      4 O          -4.3890   -1.3205   16.6460 O.2       1 ALC1        0.0000 
      5 O          -5.1870   -0.5400   15.8630 O.2       9 ALL1        0.0000 
      6 O          -3.5910   -2.1010   17.4290 O.2       5 ALP1        0.0000 
      7 Zn         -5.8960   -1.0630   15.4925 Zn        3 ZIC7        0.0000 
      8 Zn         -5.1870   -0.5400   15.8630 Zn       11 ZIL7        0.0000 
      9 Zn         -6.6050   -1.5860   15.1220 Zn        7 ZIP7        0.0000 
     10 CA         -7.7940    3.2800   14.7345 C.3       4 GLC5        0.0000 
     11 CA         -5.8510    3.1310   14.7850 C.3      12 GLL5        0.0000 
     12 CA         -9.7370    3.4290   14.6840 C.3       8 GLP5        0.0000 
     13 CA         -2.5680    4.6560   16.2015 C.3       4 GLC5        0.0000 
     14 CA         -3.0190    3.4480   14.7660 C.3      12 GLL5        0.0000 
     15 CA         -2.1170    5.8640   17.6370 C.3       8 GLP5        0.0000 
     16 CA         -2.9605    2.9955   17.0750 C.3       4 GLC5        0.0000 
     17 CA         -3.6040    2.3910   15.5050 C.3      12 GLL5        0.0000 
     18 CA         -2.3170    3.6000   18.6450 C.3       8 GLP5        0.0000 
     19 CA         -2.4640    0.6795   14.9295 C.3       4 GLC5        0.0000 
     20 CA         -1.3240   -1.0320   14.3540 C.3       8 GLP5        0.0000 
     21 CA         -8.3920    9.6820   12.1970 C.3       4 GLC5        0.0000 
     22 CA         -6.9920    8.7250   13.1870 C.3      12 GLL5        0.0000 
     23 CA         -9.7920   10.6390   11.2070 C.3       8 GLP5        0.0000 
     24 CA         -9.1385    8.5905   13.7460 C.3       4 GLC5        0.0000 
     25 CA         -7.2180    8.8560   14.5800 C.3      12 GLL5        0.0000 
     26 CA        -11.0590    8.3250   12.9120 C.3       8 GLP5        0.0000 
     27 CA         -7.6350    9.2055   16.5375 C.3       4 GLC5        0.0000 
     28 CA         -8.0520    9.5550   18.4950 C.3       8 GLP5        0.0000 
     29 CA         -4.7515    6.2895   16.5830 C.3       4 GLC5        0.0000 
     30 CA         -5.1220    7.6750   15.0470 C.3      12 GLL5        0.0000 
     31 CA         -4.3810    4.9040   18.1190 C.3       8 GLP5        0.0000 
     32 CA         -4.9062    3.7953   16.6337 C.3       4 GLC5        0.0000 
     33 CA         -4.4592    4.5925   16.0740 C.3       4 GLC5        0.0000 
     34 CA         -5.2550    4.1820   14.0460 C.3      12 GLL5        0.0000 
     35 CA         -0.0542    5.3910   13.8110 C.3       4 GLC5        0.0000 
     36 CA         -2.0250    5.4500   12.4870 C.3      12 GLL5        0.0000 
     37 CA          1.4190    5.8860   15.2890 C.3       8 GLP5        0.0000 
     38 CA         -7.4555   10.7188   14.1397 C.3       4 GLC5        0.0000 
     39 CA         -7.8060   12.6470   14.3960 C.3       8 GLP5        0.0000 
     40 CA         -8.1433    7.1895   15.2635 C.3       4 GLC5        0.0000 
     41 CA         -9.5350    5.7840   15.4820 C.3       8 GLP5        0.0000 
     42 CA         -4.9308    9.3247   16.5172 C.3       4 GLC5        0.0000 
     43 CA         -6.2850    8.3340   15.5100 C.3      12 GLL5        0.0000 
     44 CA         -4.1580   10.6450   17.7560 C.3       8 GLP5        0.0000 
     45 CA         -6.0072    7.9232   17.1668 C.3       4 GLC5        0.0000 
     46 CA         -6.3110    7.8420   19.0550 C.3       8 GLP5        0.0000 
@<TRIPOS>BOND
@<TRIPOS>SUBSTRUCTURE
     1 ALC1        4 GROUP        1 X    ALC  0     ROOT ALC X 1
     2 SEC2        1 GROUP        1 X    SEC  0     **** SEC X 2
     3 ZIC7        7 GROUP        1 X    ZIC  0     **** ZIC X 5
     4 GLC5       10 GROUP        1 X    GLC  0     **** GLC X 6
     5 ALP1        6 GROUP        1 Y    ALP  0     ROOT ALP Y 8
     6 SEP2        3 GROUP        1 Y    SEP  0     **** SEP Y 9
     7 ZIP7        9 GROUP        1 Y    ZIP  0     **** ZIP Y 12
     8 GLP5       12 GROUP        1 Y    GLP  0     **** GLP Y 13
     9 ALL1        5 GROUP        1 Z    ALL  0     ROOT ALL Z 15
    10 SEL2        2 GROUP        1 Z    SEL  0     **** SEL Z 16
    11 ZIL7        8 GROUP        1 Z    ZIL  0     **** ZIL Z 19
    12 GLL5       11 GROUP        1 Z    GLL  0     **** GLL Z 20
@<TRIPOS>SET

