#    Name: 2aw1_COX_1_ligand
#    Modification time : Mon Mar 24 19:40:59 2014

@<TRIPOS>MOLECULE
2aw1_COX_1_ligand
   35    37     1     0     0
SMALL
NO_CHARGES


@<TRIPOS>ATOM
      1 S1         -5.7340    0.9590   16.4520 S.o2      1 COX264      0.0000 
      2 O1         -7.2960    1.0600   16.2460 O.2       1 COX264      0.0000 
      3 O2         -5.1630    1.1480   17.9040 O.2       1 COX264      0.0000 
      4 N1         -5.1870   -0.5400   15.8630 N.pl3     1 COX264      0.0000 
      5 C1         -5.0120    2.2420   15.5120 C.ar      1 COX264      0.0000 
      6 C2         -5.8510    3.1310   14.7850 C.ar      1 COX264      0.0000 
      7 C3         -5.2550    4.1820   14.0460 C.ar      1 COX264      0.0000 
      8 C4         -3.8200    4.3800   14.0120 C.ar      1 COX264      0.0000 
      9 C5         -3.0190    3.4480   14.7660 C.ar      1 COX264      0.0000 
     10 C6         -3.6040    2.3910   15.5050 C.ar      1 COX264      0.0000 
     11 C7         -3.2270    5.4750   13.2660 C.2       1 COX264      0.0000 
     12 C8         -2.0250    5.4500   12.4870 C.2       1 COX264      0.0000 
     13 C9         -1.0300    4.3420   12.1790 C.3       1 COX264      0.0000 
     14 O3         -1.7770    6.6960   11.9560 O.3       1 COX264      0.0000 
     15 N2         -2.7450    7.4750   12.3470 N.2       1 COX264      0.0000 
     16 C10        -3.6830    6.8460   13.1400 C.2       1 COX264      0.0000 
     17 C11        -4.8610    7.5220   13.6350 C.ar      1 COX264      0.0000 
     18 C12        -5.8290    8.0660   12.7240 C.ar      1 COX264      0.0000 
     19 C13        -6.9920    8.7250   13.1870 C.ar      1 COX264      0.0000 
     20 C14        -7.2180    8.8560   14.5800 C.ar      1 COX264      0.0000 
     21 C15        -6.2850    8.3340   15.5100 C.ar      1 COX264      0.0000 
     22 C16        -5.1220    7.6750   15.0470 C.ar      1 COX264      0.0000 
     23 H          -4.3967   -0.9349   16.3314 H         1 COX264      0.0000 
     24 H          -6.8544    3.0126   14.7972 H         1 COX264      0.0000 
     25 H          -5.8475    4.8324   13.5122 H         1 COX264      0.0000 
     26 H          -1.9974    3.5629   14.7601 H         1 COX264      0.0000 
     27 H          -3.0179    1.7449   16.0259 H         1 COX264      0.0000 
     28 H          -5.6645    7.9695   11.7141 H         1 COX264      0.0000 
     29 H          -7.6644    9.1039   12.5234 H         1 COX264      0.0000 
     30 H          -8.0592    9.3300   14.9157 H         1 COX264      0.0000 
     31 H          -6.4524    8.4336   16.5102 H         1 COX264      0.0000 
     32 H          -4.4453    7.2952   15.7152 H         1 COX264      0.0000 
     33 H          -0.2882    4.6622   11.5897 H         1 COX264      0.0000 
     34 H          -0.6084    3.9798   13.0103 H         1 COX264      0.0000 
     35 H          -1.4644    3.5722   11.7113 H         1 COX264      0.0000 
@<TRIPOS>BOND
     1    2    1 2    
     2    3    1 2    
     3    4    1 1    
     4    5    1 1    
     5   23    4 1    
     6    6    5 ar   
     7   10    5 ar   
     8    7    6 ar   
     9   24    6 1    
    10    8    7 ar   
    11   25    7 1    
    12    9    8 ar   
    13   11    8 1    
    14   10    9 ar   
    15   26    9 1    
    16   27   10 1    
    17   12   11 2    
    18   16   11 1    
    19   13   12 1    
    20   14   12 1    
    21   33   13 1    
    22   34   13 1    
    23   35   13 1    
    24   15   14 1    
    25   16   15 2    
    26   17   16 1    
    27   18   17 ar   
    28   22   17 ar   
    29   19   18 ar   
    30   28   18 1    
    31   20   19 ar   
    32   29   19 1    
    33   21   20 ar   
    34   30   20 1    
    35   22   21 ar   
    36   31   21 1    
    37   32   22 1    
@<TRIPOS>SUBSTRUCTURE
     1 COX264      1 GROUP   
@<TRIPOS>SET

