#    Name: 1D7O_1_CAVITY_N1_6.mol2
#    Modification time : Mon Mar 10 17:53:58 2014

@<TRIPOS>MOLECULE
1D7O_1_CAVITY_N1_6.mol2
   92     0     6     0     0
SMALL
NO_CHARGES


@<TRIPOS>ATOM
      1 CA         -7.5793   17.3930   41.5554 C.3       5 GLY6        0.0000 
      2 CZ         -7.6956   15.9980   42.0942 C.ar      4 PHE5        0.0000 
      3 CA         -7.6698   15.4558   40.6958 C.3       5 GLY6        0.0000 
      4 CZ         -6.0841   17.2940   41.6214 C.ar      4 PHE5        0.0000 
      5 CZ         -6.2003   15.8989   42.1601 C.ar      4 PHE5        0.0000 
      6 CZ         -6.3165   14.5038   42.6989 C.ar      4 PHE5        0.0000 
      7 CA         -6.0583   16.7518   40.2230 C.3       5 GLY6        0.0000 
      8 CA         -6.1745   15.3567   40.7618 C.3       5 GLY6        0.0000 
      9 CA         -4.6146   17.7370   43.0857 C.3       5 GLY6        0.0000 
     10 CZ         -4.7308   16.3420   43.6244 C.ar      4 PHE5        0.0000 
     11 CA         -4.4726   18.5900   41.1486 C.3       5 GLY6        0.0000 
     12 DU         -4.5888   17.1949   41.6873 H         6 CUB7        0.0000 
     13 CZ         -4.7050   15.7998   42.2261 C.ar      4 PHE5        0.0000 
     14 DU         -4.4469   18.0478   39.7502 H         6 CUB7        0.0000 
     15 DU         -4.5631   16.6527   40.2890 H         6 CUB7        0.0000 
     16 CA         -4.6793   15.2576   40.8277 C.3       5 GLY6        0.0000 
     17 CA         -4.7955   13.8626   41.3665 C.3       5 GLY6        0.0000 
     18 CA         -4.5373   16.1106   38.8906 C.3       5 GLY6        0.0000 
     19 CA         -4.6535   14.7155   39.4294 C.3       5 GLY6        0.0000 
     20 CA         -4.5115   15.5684   37.4923 C.3       5 GLY6        0.0000 
     21 CA         -4.6277   14.1733   38.0310 C.3       5 GLY6        0.0000 
     22 N          -4.4858   15.0263   36.0939 N.2       2 ALA2        0.0000 
     23 CA         -3.1450   18.1801   44.5500 C.3       5 GLY6        0.0000 
     24 CZ         -3.2613   16.7850   45.0888 C.ar      4 PHE5        0.0000 
     25 CZ         -3.3775   15.3900   45.6275 C.ar      4 PHE5        0.0000 
     26 CA         -3.1193   17.6380   43.1517 C.3       5 GLY6        0.0000 
     27 CZ         -3.2355   16.2429   43.6904 C.ar      4 PHE5        0.0000 
     28 CA         -2.9773   18.4909   41.2146 C.3       5 GLY6        0.0000 
     29 DU         -3.0935   17.0958   41.7533 H         6 CUB7        0.0000 
     30 CZ         -3.2097   15.7007   42.2920 C.ar      4 PHE5        0.0000 
     31 DU         -2.9516   17.9487   39.8162 H         6 CUB7        0.0000 
     32 DU         -3.1840   15.1586   40.8937 H         6 CUB7        0.0000 
     33 CZ         -3.3002   13.7635   41.4324 C.ar      4 PHE5        0.0000 
     34 DU         -3.0420   16.0115   38.9566 H         6 CUB7        0.0000 
     35 CA         -3.1582   14.6164   39.4953 C.3       5 GLY6        0.0000 
     36 CA         -3.2744   13.2213   40.0341 C.3       5 GLY6        0.0000 
     37 DU         -2.9001   16.8644   37.0195 H         6 CUB7        0.0000 
     38 DU         -3.0163   15.4693   37.5582 H         6 CUB7        0.0000 
     39 O          -3.1325   14.0743   38.0970 O.2       2 ALA2        0.0000 
     40 CA         -3.2487   12.6792   38.6357 C.3       5 GLY6        0.0000 
     41 N          -2.8743   16.3223   35.6211 N.2       2 ALA2        0.0000 
     42 O          -2.9905   14.9272   36.1599 O.2       2 ALA2        0.0000 
     43 N          -2.8486   15.7801   34.2228 N.2       2 ALA2        0.0000 
     44 CZ         -1.7660   16.6860   45.1547 C.ar      4 PHE5        0.0000 
     45 CA         -1.3916   20.3290   42.1401 C.3       5 GLY6        0.0000 
     46 O          -1.5078   18.9340   42.6789 O.2       2 ALA2        0.0000 
     47 O          -1.6240   17.5389   43.2176 O.2       2 ALA2        0.0000 
     48 CZ         -1.7402   16.1438   43.7564 C.ar      4 PHE5        0.0000 
     49 CZ         -1.8564   14.7487   44.2951 C.ar      4 PHE5        0.0000 
     50 NZ         -1.3659   19.7869   40.7418 N.2       3 LYS4        0.0000 
     51 NZ         -1.4821   18.3918   41.2805 N.2       3 LYS4        0.0000 
     52 DU         -1.5983   16.9967   41.8193 H         6 CUB7        0.0000 
     53 OG         -1.7145   15.6016   42.3580 O.2       1 SER1        0.0000 
     54 OG         -1.8307   14.2066   42.8967 O.2       1 SER1        0.0000 
     55 DU         -1.3401   19.2447   39.3434 H         6 CUB7        0.0000 
     56 DU         -1.4563   17.8496   39.8821 H         6 CUB7        0.0000 
     57 DU         -1.5725   16.4546   40.4209 H         6 CUB7        0.0000 
     58 DU         -1.6887   15.0595   40.9596 H         6 CUB7        0.0000 
     59 OG         -1.8049   13.6644   41.4984 O.2       1 SER1        0.0000 
     60 DU         -1.3144   18.7026   37.9450 H         6 CUB7        0.0000 
     61 DU         -1.4306   17.3075   38.4838 H         6 CUB7        0.0000 
     62 DU         -1.5468   15.9124   39.0225 H         6 CUB7        0.0000 
     63 DU         -1.6630   14.5173   39.5613 H         6 CUB7        0.0000 
     64 CA         -1.7792   13.1223   40.1000 C.3       5 GLY6        0.0000 
     65 DU         -1.2886   18.1604   36.5467 H         6 CUB7        0.0000 
     66 DU         -1.4048   16.7653   37.0854 H         6 CUB7        0.0000 
     67 CA         -1.5210   15.3703   37.6242 C.3       5 GLY6        0.0000 
     68 CA         -1.6372   13.9752   38.1629 C.3       5 GLY6        0.0000 
     69 N          -1.3790   16.2232   35.6871 N.2       2 ALA2        0.0000 
     70 CA         -1.4952   14.8281   36.2258 C.3       5 GLY6        0.0000 
     71 NZ         -0.1288   17.4398   43.2836 N.2       3 LYS4        0.0000 
     72 CZ         -0.2450   16.0447   43.8223 C.ar      4 PHE5        0.0000 
     73 N           0.1294   19.6878   40.8077 N.2       2 ALA2        0.0000 
     74 NZ          0.0132   18.2927   41.3465 N.2       3 LYS4        0.0000 
     75 NZ         -0.1030   16.8976   41.8852 N.2       3 LYS4        0.0000 
     76 OG         -0.2192   15.5026   42.4240 O.2       1 SER1        0.0000 
     77 N           0.1552   19.1457   39.4094 N.2       2 ALA2        0.0000 
     78 N           0.0390   17.7506   39.9481 N.2       2 ALA2        0.0000 
     79 CA         -0.0772   16.3555   40.4868 C.3       5 GLY6        0.0000 
     80 OG         -0.1934   14.9604   41.0256 O.2       1 SER1        0.0000 
     81 NZ          0.1809   18.6035   38.0110 N.2       3 LYS4        0.0000 
     82 NZ          0.0647   17.2084   38.5497 N.2       3 LYS4        0.0000 
     83 N          -0.0515   15.8133   39.0885 N.2       2 ALA2        0.0000 
     84 CA         -0.1677   14.4183   39.6272 C.3       5 GLY6        0.0000 
     85 NZ          0.2067   18.0613   36.6126 N.2       3 LYS4        0.0000 
     86 N           0.0905   16.6663   37.1514 N.2       2 ALA2        0.0000 
     87 N           0.2324   17.5192   35.2143 N.2       2 ALA2        0.0000 
     88 N           0.1162   16.1241   35.7530 N.2       2 ALA2        0.0000 
     89 N           1.4180   16.2564   40.5528 N.2       2 ALA2        0.0000 
     90 CA          1.5600   17.1093   38.6157 C.3       5 GLY6        0.0000 
     91 N           1.4438   15.7143   39.1544 N.2       2 ALA2        0.0000 
     92 NZ          1.7019   17.9623   36.6786 N.2       3 LYS4        0.0000 
@<TRIPOS>BOND
@<TRIPOS>SUBSTRUCTURE
     1 SER1       53 GROUP   
     2 ALA2       22 GROUP   
     3 LYS4       50 GROUP   
     4 PHE5        2 GROUP   
     5 GLY6        1 GROUP   
     6 CUB7       12 GROUP   
@<TRIPOS>SET

