#    Name: 1d7o_TCL_1_INTS_M
#    Modification time : Mon Mar 24 21:33:09 2014

@<TRIPOS>MOLECULE
1d7o_TCL_1_INTS_M
   49     0     9     0     0
SMALL
NO_CHARGES


@<TRIPOS>ATOM
      1 CA         -1.4605   13.5775   46.7105 C.3       3 GLC5        0.0000 
      2 CA         -2.1130   15.2450   45.5970 C.3       9 GLL5        0.0000 
      3 CA         -0.8080   11.9100   47.8240 C.3       6 GLP5        0.0000 
      4 CA         -0.3950   13.9825   37.2050 C.3       3 GLC5        0.0000 
      5 CA         -0.9890   15.2390   38.8790 C.3       9 GLL5        0.0000 
      6 CA          0.1990   12.7260   35.5310 C.3       6 GLP5        0.0000 
      7 CA         -4.8490   13.6600   39.7225 C.3       3 GLC5        0.0000 
      8 CA         -2.9060   14.3430   40.0930 C.3       9 GLL5        0.0000 
      9 CA         -6.7920   12.9770   39.3520 C.3       6 GLP5        0.0000 
     10 CA         -3.3550   12.3220   39.7945 C.3       3 GLC5        0.0000 
     11 CA         -3.8040   10.3010   39.4960 C.3       6 GLP5        0.0000 
     12 CA         -3.9800   15.1860   48.3630 C.3       3 GLC5        0.0000 
     13 CA         -3.6390   16.6420   47.3030 C.3       9 GLL5        0.0000 
     14 CA         -4.3210   13.7300   49.4230 C.3       6 GLP5        0.0000 
     15 CA         -2.8725   18.1345   48.7170 C.3       3 GLC5        0.0000 
     16 CA         -2.1060   19.6270   50.1310 C.3       6 GLP5        0.0000 
     17 CA         -5.2540   16.4255   46.4895 C.3       3 GLC5        0.0000 
     18 CA         -6.8690   16.2090   45.6760 C.3       6 GLP5        0.0000 
     19 CA         -1.6570   16.6450   47.4405 C.3       3 GLC5        0.0000 
     20 CA          0.3250   16.6480   47.5780 C.3       6 GLP5        0.0000 
     21 CA         -1.3355   13.3495   36.4735 C.3       3 GLC5        0.0000 
     22 CA         -2.8700   13.9730   37.4160 C.3       9 GLL5        0.0000 
     23 CA         -3.0235   12.5290   36.2575 C.3       3 GLC5        0.0000 
     24 CA         -3.1770   11.0850   35.0990 C.3       6 GLP5        0.0000 
     25 CA         -4.9265   14.0155   37.2735 C.3       3 GLC5        0.0000 
     26 CA         -6.9830   14.0580   37.1310 C.3       6 GLP5        0.0000 
     27 CA          1.5515   14.6700   39.7645 C.3       3 GLC5        0.0000 
     28 CA          1.0420   16.5560   40.0320 C.3       9 GLL5        0.0000 
     29 CA          2.0610   12.7840   39.4970 C.3       6 GLP5        0.0000 
     30 CA          2.5400   17.1345   39.2665 C.3       3 GLC5        0.0000 
     31 CA          4.0380   17.7130   38.5010 C.3       6 GLP5        0.0000 
     32 N           0.3840   13.8530   43.7110 N.am      2 SEC2        0.0000 
     33 N          -0.7490   13.9750   44.2270 N.am      8 SEL2        0.0000 
     34 N           1.5170   13.7310   43.1950 N.am      5 SEP2        0.0000 
     35 O          -1.3195   12.8875   44.0800 O.2       1 ALC1        0.0000 
     36 O          -0.7490   13.9750   44.2270 O.2       7 ALL1        0.0000 
     37 O          -1.8900   11.8000   43.9330 O.2       4 ALP1        0.0000 
     38 CA          0.4708   15.2550   43.6190 C.3       3 GLC5        0.0000 
     39 CA         -1.3850   15.1060   44.4750 C.3       9 GLL5        0.0000 
     40 CA          2.2970   14.8660   43.2200 C.3       6 GLP5        0.0000 
     41 CA         -3.2218   19.1593   44.0005 C.3       3 GLC5        0.0000 
     42 CA         -1.9690   17.3580   43.7950 C.3       9 GLL5        0.0000 
     43 CA         -4.1160   20.8760   43.6430 C.3       6 GLP5        0.0000 
     44 CA         -2.2965   12.1847   38.5817 C.3       3 GLC5        0.0000 
     45 CA         -2.2080   14.5520   38.8950 C.3       9 GLL5        0.0000 
     46 CA         -2.0540   10.1070   39.0080 C.3       6 GLP5        0.0000 
     47 CA          0.6618   14.1288   39.4845 C.3       3 GLC5        0.0000 
     48 CA          0.7328   15.2390   41.9475 C.3       3 GLC5        0.0000 
     49 CA         -0.4860   15.7080   40.0650 C.3       9 GLL5        0.0000 
@<TRIPOS>BOND
@<TRIPOS>SUBSTRUCTURE
     1 ALC1       35 GROUP        1 X    ALC  0     ROOT ALC X 1
     2 SEC2       32 GROUP        1 X    SEC  0     **** SEC X 2
     3 GLC5        1 GROUP        1 X    GLC  0     **** GLC X 6
     4 ALP1       37 GROUP        1 Y    ALP  0     ROOT ALP Y 8
     5 SEP2       34 GROUP        1 Y    SEP  0     **** SEP Y 9
     6 GLP5        3 GROUP        1 Y    GLP  0     **** GLP Y 13
     7 ALL1       36 GROUP        1 Z    ALL  0     ROOT ALL Z 15
     8 SEL2       33 GROUP        1 Z    SEL  0     **** SEL Z 16
     9 GLL5        2 GROUP        1 Z    GLL  0     **** GLL Z 20
@<TRIPOS>SET

