#    Name: 1d7o_TCL_1_ligand
#    Modification time : Mon Mar 24 21:33:09 2014

@<TRIPOS>MOLECULE
1d7o_TCL_1_ligand
   24    25     1     0     0
SMALL
NO_CHARGES


@<TRIPOS>ATOM
      1 C1         -2.1130   15.2450   45.5970 C.ar      1 TCL502      0.0000 
      2 C2         -2.7360   16.4460   45.8110 C.ar      1 TCL502      0.0000 
      3 C6         -1.3850   15.1060   44.4750 C.ar      1 TCL502      0.0000 
      4 C5         -1.3260   16.1820   43.5610 C.ar      1 TCL502      0.0000 
      5 C4         -1.9690   17.3580   43.7950 C.ar      1 TCL502      0.0000 
      6 C3         -2.6860   17.5270   44.9210 C.ar      1 TCL502      0.0000 
      7 C11        -2.2080   14.5520   38.8950 C.ar      1 TCL502      0.0000 
      8 C10        -0.9890   15.2390   38.8790 C.ar      1 TCL502      0.0000 
      9 C9         -0.4860   15.7080   40.0650 C.ar      1 TCL502      0.0000 
     10 C8         -1.1770   15.5160   41.2850 C.ar      1 TCL502      0.0000 
     11 C12        -2.9060   14.3430   40.0930 C.ar      1 TCL502      0.0000 
     12 C13        -2.3680   14.8420   41.2870 C.ar      1 TCL502      0.0000 
     13 O7         -0.5810   16.0180   42.4440 O.3       1 TCL502      0.0000 
     14 CL14       -3.6390   16.6420   47.3030 Cl        1 TCL502      0.0000 
     15 CL15       -2.8700   13.9730   37.4160 Cl        1 TCL502      0.0000 
     16 CL16        1.0420   16.5560   40.0320 Cl        1 TCL502      0.0000 
     17 O17        -0.7490   13.9750   44.2270 O.3       1 TCL502      0.0000 
     18 H          -2.2061   14.4842   46.2773 H         1 TCL502      0.0000 
     19 H          -1.9017   18.1275   43.0946 H         1 TCL502      0.0000 
     20 H          -3.1770   18.3863   45.1399 H         1 TCL502      0.0000 
     21 H          -0.4957   15.3809   37.9976 H         1 TCL502      0.0000 
     22 H          -3.7884   13.8374   40.0951 H         1 TCL502      0.0000 
     23 H          -2.8864   14.6921   42.1691 H         1 TCL502      0.0000 
     24 H          -1.3790   13.2548   44.5177 H         1 TCL502      0.0000 
@<TRIPOS>BOND
     1    2    1 ar   
     2    3    1 ar   
     3   18    1 1    
     4    6    2 ar   
     5   14    2 1    
     6    4    3 ar   
     7   17    3 1    
     8    5    4 ar   
     9   13    4 1    
    10    6    5 ar   
    11   19    5 1    
    12   20    6 1    
    13    8    7 ar   
    14   11    7 ar   
    15   15    7 1    
    16    9    8 ar   
    17   21    8 1    
    18   10    9 ar   
    19   16    9 1    
    20   12   10 ar   
    21   13   10 1    
    22   12   11 ar   
    23   22   11 1    
    24   23   12 1    
    25   24   17 1    
@<TRIPOS>SUBSTRUCTURE
     1 TCL502      1 GROUP   
@<TRIPOS>SET

