#    Name: 3w5e_NVW_2_INTS_M
#    Modification time : Tue Mar 25 02:18:50 2014

@<TRIPOS>MOLECULE
3w5e_NVW_2_INTS_M
   64     0     6     0     0
SMALL
NO_CHARGES


@<TRIPOS>ATOM
      1 N          23.9290  -24.3110  -12.1380 N.am      1 SEC2        0.0000 
      2 N          22.8170  -23.5280  -12.5700 N.am      5 SEL2        0.0000 
      3 N          25.0410  -25.0940  -11.7060 N.am      3 SEP2        0.0000 
      4 CA         21.6155  -20.5665  -13.3645 C.3       2 GLC5        0.0000 
      5 CA         20.7180  -22.3910  -13.9100 C.3       6 GLL5        0.0000 
      6 CA         22.5130  -18.7420  -12.8190 C.3       4 GLP5        0.0000 
      7 CA         20.7465  -26.0070  -10.8805 C.3       2 GLC5        0.0000 
      8 CA         20.0990  -24.0160  -10.1910 C.3       6 GLL5        0.0000 
      9 CA         21.3940  -27.9980  -11.5700 C.3       4 GLP5        0.0000 
     10 CA         23.7250  -19.8555  -16.9830 C.3       2 GLC5        0.0000 
     11 CA         23.9030  -21.6400  -16.1960 C.3       6 GLL5        0.0000 
     12 CA         23.5470  -18.0710  -17.7700 C.3       4 GLP5        0.0000 
     13 N          22.7035  -22.0820  -18.2070 N.am      1 SEC2        0.0000 
     14 N          21.9270  -23.1010  -17.0910 N.am      5 SEL2        0.0000 
     15 N          23.4800  -21.0630  -19.3230 N.am      3 SEP2        0.0000 
     16 N          21.7170  -23.0315  -18.4785 N.am      1 SEC2        0.0000 
     17 N          21.5070  -22.9620  -19.8660 N.am      3 SEP2        0.0000 
     18 CA         15.0905  -21.6595  -13.2925 C.3       2 GLC5        0.0000 
     19 CA         16.7880  -21.2030  -12.2590 C.3       6 GLL5        0.0000 
     20 CA         13.3930  -22.1160  -14.3260 C.3       4 GLP5        0.0000 
     21 CA         16.3840  -22.5410   -8.4655 C.3       2 GLC5        0.0000 
     22 CA         17.2760  -21.0510   -7.6720 C.3       6 GLL5        0.0000 
     23 CA         15.4920  -24.0310   -9.2590 C.3       4 GLP5        0.0000 
     24 CA         18.9180  -18.4010   -8.7145 C.3       2 GLC5        0.0000 
     25 CA         17.8560  -18.7350   -7.2800 C.3       6 GLL5        0.0000 
     26 CA         19.9800  -18.0670  -10.1490 C.3       4 GLP5        0.0000 
     27 CA         17.5845  -19.1035   -5.2390 C.3       2 GLC5        0.0000 
     28 CA         17.3130  -19.4720   -3.1980 C.3       4 GLP5        0.0000 
     29 CA         14.6070  -17.8090   -7.7635 C.3       2 GLC5        0.0000 
     30 CA         15.5220  -19.4550   -6.9530 C.3       6 GLL5        0.0000 
     31 CA         13.6920  -16.1630   -8.5740 C.3       4 GLP5        0.0000 
     32 CA         16.4175  -19.4635   -5.0755 C.3       2 GLC5        0.0000 
     33 CA         23.1085  -25.7097   -7.4305 C.3       2 GLC5        0.0000 
     34 CA         22.2040  -24.7670   -8.6170 C.3       6 GLL5        0.0000 
     35 CA         24.6580  -26.5690   -6.4780 C.3       4 GLP5        0.0000 
     36 CA         21.7278  -26.2003  -10.5066 C.3       2 GLC5        0.0000 
     37 CA         21.8935  -24.0352   -6.7345 C.3       2 GLC5        0.0000 
     38 CA         22.2280  -23.2200   -5.0860 C.3       4 GLP5        0.0000 
     39 CA         18.4873  -24.7613   -7.8285 C.3       2 GLC5        0.0000 
     40 CA         20.9140  -24.9340   -8.1490 C.3       6 GLL5        0.0000 
     41 CA         16.5900  -24.7830   -7.1130 C.3       4 GLP5        0.0000 
     42 CA         20.1115  -26.4399   -8.2485 C.3       2 GLC5        0.0000 
     43 CA         19.8550  -24.5450   -8.9390 C.3       6 GLL5        0.0000 
     44 CA         19.5160  -28.1820   -7.8360 C.3       4 GLP5        0.0000 
     45 CA         23.5742  -21.3640  -13.4785 C.3       2 GLC5        0.0000 
     46 CA         23.0000  -23.1030  -13.8400 C.3       6 GLL5        0.0000 
     47 CA         24.6750  -19.9080  -12.7700 C.3       4 GLP5        0.0000 
     48 CA         24.4250  -22.6893  -17.9292 C.3       2 GLC5        0.0000 
     49 CA         24.5550  -23.1160  -19.8600 C.3       4 GLP5        0.0000 
     50 CA         25.6550  -21.3362  -17.3208 C.3       2 GLC5        0.0000 
     51 CA         27.0150  -20.4100  -18.6430 C.3       4 GLP5        0.0000 
     52 CA         25.7647  -24.4972  -15.8235 C.3       2 GLC5        0.0000 
     53 CA         24.4000  -23.3220  -14.3830 C.3       6 GLL5        0.0000 
     54 CA         26.9860  -25.8910  -16.5550 C.3       4 GLP5        0.0000 
     55 CA         26.1512  -21.9876  -14.8019 C.3       2 GLC5        0.0000 
     56 CA         27.9550  -21.1830  -14.4130 C.3       4 GLP5        0.0000 
     57 CA         24.5113  -21.3501  -13.9804 C.3       2 GLC5        0.0000 
     58 CA         24.6870  -22.8850  -15.8010 C.3       6 GLL5        0.0000 
     59 CA         19.9133  -18.4642  -13.1738 C.3       2 GLC5        0.0000 
     60 CA         18.5620  -19.7780  -13.7240 C.3       6 GLL5        0.0000 
     61 CA         21.7330  -17.4810  -13.0070 C.3       4 GLP5        0.0000 
     62 CA         18.5625  -19.8930   -9.0282 C.3       2 GLC5        0.0000 
     63 CA         16.7560  -19.6330   -7.8090 C.3       6 GLL5        0.0000 
     64 CA         20.1090  -19.4440  -10.3160 C.3       4 GLP5        0.0000 
@<TRIPOS>BOND
@<TRIPOS>SUBSTRUCTURE
     1 SEC2        1 GROUP        1 X    SEC  0     ROOT SEC X 2
     2 GLC5        4 GROUP        1 X    GLC  0     **** GLC X 6
     3 SEP2        3 GROUP        1 Y    SEP  0     ROOT SEP Y 9
     4 GLP5        6 GROUP        1 Y    GLP  0     **** GLP Y 13
     5 SEL2        2 GROUP        1 Z    SEL  0     ROOT SEL Z 16
     6 GLL5        5 GROUP        1 Z    GLL  0     **** GLL Z 20
@<TRIPOS>SET

