#    Name: 3w5e_NVW_2_ligand
#    Modification time : Tue Mar 25 02:18:50 2014

@<TRIPOS>MOLECULE
3w5e_NVW_2_ligand
   61    64     1     0     0
SMALL
NO_CHARGES


@<TRIPOS>ATOM
      1 N1         22.8170  -23.5280  -12.5700 N.ar      1 NVW901      0.0000 
      2 C1         20.7180  -22.3910  -13.9100 C.ar      1 NVW901      0.0000 
      3 N2         20.5590  -22.8060  -12.6500 N.ar      1 NVW901      0.0000 
      4 C2         21.6130  -23.3530  -12.0300 C.ar      1 NVW901      0.0000 
      5 C3         21.3930  -23.8490  -10.6750 C.ar      1 NVW901      0.0000 
      6 N3         19.6130  -21.8130  -14.5530 N.pl3     1 NVW901      0.0000 
      7 C4         22.4450  -24.2270   -9.8640 C.ar      1 NVW901      0.0000 
      8 C5         22.2040  -24.7670   -8.6170 C.ar      1 NVW901      0.0000 
      9 C6         20.9140  -24.9340   -8.1490 C.ar      1 NVW901      0.0000 
     10 C7         19.8550  -24.5450   -8.9390 C.ar      1 NVW901      0.0000 
     11 C8         20.0990  -24.0160  -10.1910 C.ar      1 NVW901      0.0000 
     12 C9         23.0000  -23.1030  -13.8400 C.ar      1 NVW901      0.0000 
     13 C10        21.9470  -22.5370  -14.5340 C.ar      1 NVW901      0.0000 
     14 S1         22.1660  -21.9920  -16.1920 S.o2      1 NVW901      0.0000 
     15 C11        23.9030  -21.6400  -16.1960 C.3       1 NVW901      0.0000 
     16 C12        24.6870  -22.8850  -15.8010 C.3       1 NVW901      0.0000 
     17 C13        24.4000  -23.3220  -14.3830 C.3       1 NVW901      0.0000 
     18 O1         21.9270  -23.1010  -17.0910 O.2       1 NVW901      0.0000 
     19 O2         21.4580  -20.7610  -16.4180 O.2       1 NVW901      0.0000 
     20 C14        18.6370  -21.1520  -13.7710 C.ar      1 NVW901      0.0000 
     21 C15        17.7320  -21.8540  -13.0200 C.ar      1 NVW901      0.0000 
     22 C16        17.6250  -19.1170  -12.9570 C.ar      1 NVW901      0.0000 
     23 C17        18.5620  -19.7780  -13.7240 C.ar      1 NVW901      0.0000 
     24 C18        16.7190  -19.8270  -12.2130 C.ar      1 NVW901      0.0000 
     25 C19        16.7880  -21.2030  -12.2590 C.ar      1 NVW901      0.0000 
     26 C20        15.7060  -19.1160  -11.3910 C.3       1 NVW901      0.0000 
     27 C21        15.5800  -19.7870  -10.0530 C.2       1 NVW901      0.0000 
     28 N4         16.4690  -19.2090   -9.1760 N.am      1 NVW901      0.0000 
     29 O3         14.8000  -20.7140   -9.8320 O.2       1 NVW901      0.0000 
     30 C22        16.7560  -19.6330   -7.8090 C.3       1 NVW901      0.0000 
     31 C23        17.2760  -21.0510   -7.6720 C.3       1 NVW901      0.0000 
     32 C24        17.8560  -18.7350   -7.2800 C.3       1 NVW901      0.0000 
     33 C25        15.5220  -19.4550   -6.9530 C.3       1 NVW901      0.0000 
     34 H          19.5110  -21.8653  -15.5606 H         1 NVW901      0.0000 
     35 H          23.4174  -24.1047  -10.1929 H         1 NVW901      0.0000 
     36 H          23.0043  -25.0529   -8.0196 H         1 NVW901      0.0000 
     37 H          20.7495  -25.3439   -7.2219 H         1 NVW901      0.0000 
     38 H          18.8891  -24.6471   -8.6005 H         1 NVW901      0.0000 
     39 H          19.2967  -23.7332  -10.7923 H         1 NVW901      0.0000 
     40 H          23.9948  -20.8460  -15.4934 H         1 NVW901      0.0000 
     41 H          24.0884  -21.3273  -17.1962 H         1 NVW901      0.0000 
     42 H          25.7601  -22.6795  -15.9093 H         1 NVW901      0.0000 
     43 H          24.4337  -23.6997  -16.4922 H         1 NVW901      0.0000 
     44 H          24.6499  -24.4131  -14.2870 H         1 NVW901      0.0000 
     45 H          25.1292  -22.8126  -13.6968 H         1 NVW901      0.0000 
     46 H          17.7561  -22.8943  -13.0229 H         1 NVW901      0.0000 
     47 H          17.6094  -18.0825  -12.9461 H         1 NVW901      0.0000 
     48 H          19.2400  -19.2135  -14.2903 H         1 NVW901      0.0000 
     49 H          16.1063  -21.7647  -11.7020 H         1 NVW901      0.0000 
     50 H          14.7384  -19.1319  -11.8955 H         1 NVW901      0.0000 
     51 H          16.0055  -18.0765  -11.2469 H         1 NVW901      0.0000 
     52 H          17.0255  -18.3544   -9.5019 H         1 NVW901      0.0000 
     53 H          18.1325  -21.1823   -8.1711 H         1 NVW901      0.0000 
     54 H          17.4532  -21.2910   -6.7175 H         1 NVW901      0.0000 
     55 H          16.6243  -21.7215   -8.0267 H         1 NVW901      0.0000 
     56 H          18.6893  -18.8061   -7.8283 H         1 NVW901      0.0000 
     57 H          17.5839  -17.7727   -7.2837 H         1 NVW901      0.0000 
     58 H          18.1036  -18.9659   -6.3391 H         1 NVW901      0.0000 
     59 H          15.6819  -19.7384   -6.0074 H         1 NVW901      0.0000 
     60 H          15.2228  -18.5012   -6.9265 H         1 NVW901      0.0000 
     61 H          14.7522  -19.9943   -7.2945 H         1 NVW901      0.0000 
@<TRIPOS>BOND
     1    4    1 ar   
     2   12    1 ar   
     3    3    2 ar   
     4    6    2 1    
     5   13    2 ar   
     6    4    3 ar   
     7    5    4 1    
     8    7    5 ar   
     9   11    5 ar   
    10   20    6 1    
    11   34    6 1    
    12    8    7 ar   
    13   35    7 1    
    14    9    8 ar   
    15   36    8 1    
    16   10    9 ar   
    17   37    9 1    
    18   11   10 ar   
    19   38   10 1    
    20   39   11 1    
    21   13   12 ar   
    22   17   12 1    
    23   14   13 1    
    24   15   14 1    
    25   18   14 2    
    26   19   14 2    
    27   16   15 1    
    28   40   15 1    
    29   41   15 1    
    30   17   16 1    
    31   42   16 1    
    32   43   16 1    
    33   44   17 1    
    34   45   17 1    
    35   21   20 ar   
    36   23   20 ar   
    37   25   21 ar   
    38   46   21 1    
    39   23   22 ar   
    40   24   22 ar   
    41   47   22 1    
    42   48   23 1    
    43   25   24 ar   
    44   26   24 1    
    45   49   25 1    
    46   27   26 1    
    47   50   26 1    
    48   51   26 1    
    49   28   27 am   
    50   29   27 2    
    51   30   28 1    
    52   52   28 1    
    53   31   30 1    
    54   32   30 1    
    55   33   30 1    
    56   53   31 1    
    57   54   31 1    
    58   55   31 1    
    59   56   32 1    
    60   57   32 1    
    61   58   32 1    
    62   59   33 1    
    63   60   33 1    
    64   61   33 1    
@<TRIPOS>SUBSTRUCTURE
     1 NVW901      1 GROUP   
@<TRIPOS>SET

