#    Name: 3ska_053_2_INTS_M
#    Modification time : Mon Mar 24 17:47:03 2014

@<TRIPOS>MOLECULE
3ska_053_2_INTS_M
   63     0     9     0     0
SMALL
NO_CHARGES


@<TRIPOS>ATOM
      1 CA         27.2905   -0.8595   -3.4950 C.3       3 GLC5        0.0000 
      2 CA         25.9180   -0.5150   -2.0920 C.3       9 GLL5        0.0000 
      3 CA         28.6630   -1.2040   -4.8980 C.3       6 GLP5        0.0000 
      4 O          26.9340    1.6315   -2.1470 O.2       1 ALC1        0.0000 
      5 O          26.2480    0.6170   -1.3960 O.2       7 ALL1        0.0000 
      6 O          27.6200    2.6460   -2.8980 O.2       4 ALP1        0.0000 
      7 CA         20.5955   -0.0530    4.8410 C.3       3 GLC5        0.0000 
      8 CA         20.7260    1.1710    3.5620 C.3       9 GLL5        0.0000 
      9 CA         20.4650   -1.2770    6.1200 C.3       6 GLP5        0.0000 
     10 CA         19.1815   -0.1565    4.6305 C.3       3 GLC5        0.0000 
     11 CA         19.3400    1.3240    3.4870 C.3       9 GLL5        0.0000 
     12 CA         19.0230   -1.6370    5.7740 C.3       6 GLP5        0.0000 
     13 CA         18.3720    2.5725    6.4350 C.3       3 GLC5        0.0000 
     14 CA         19.4110    3.1340    4.9320 C.3       9 GLL5        0.0000 
     15 CA         17.3330    2.0110    7.9380 C.3       6 GLP5        0.0000 
     16 CA         23.5305    3.7030    5.1545 C.3       3 GLC5        0.0000 
     17 CA         22.9530    1.9620    4.5560 C.3       9 GLL5        0.0000 
     18 CA         24.1080    5.4440    5.7530 C.3       6 GLP5        0.0000 
     19 CA         21.7795    1.0480    5.9000 C.3       3 GLC5        0.0000 
     20 CA         20.6060    0.1340    7.2440 C.3       6 GLP5        0.0000 
     21 CA         24.9135    1.8615    4.6540 C.3       3 GLC5        0.0000 
     22 CA         26.8740    1.7610    4.7520 C.3       6 GLP5        0.0000 
     23 CA         28.2305   -4.5525    5.4215 C.3       3 GLC5        0.0000 
     24 CA         26.4470   -4.2340    5.4190 C.3       9 GLL5        0.0000 
     25 CA         30.0140   -4.8710    5.4240 C.3       6 GLP5        0.0000 
     26 CA         25.7515   -3.5135    7.2330 C.3       3 GLC5        0.0000 
     27 CA         25.0560   -2.7930    9.0470 C.3       6 GLP5        0.0000 
     28 CA         22.9665   -5.6560    4.9280 C.3       3 GLC5        0.0000 
     29 CA         24.6000   -5.0890    4.6930 C.3       9 GLL5        0.0000 
     30 CA         21.3330   -6.2230    5.1630 C.3       6 GLP5        0.0000 
     31 CA         24.9215   -6.5120    5.5055 C.3       3 GLC5        0.0000 
     32 CA         25.2430   -7.9350    6.3180 C.3       6 GLP5        0.0000 
     33 CA         28.0940   -4.7755    4.3595 C.3       3 GLC5        0.0000 
     34 CA         26.1740   -4.6800    3.2950 C.3       9 GLL5        0.0000 
     35 CA         27.1310   -3.9630    1.8595 C.3       3 GLC5        0.0000 
     36 CA         28.0880   -3.2460    0.4240 C.3       6 GLP5        0.0000 
     37 N          26.6940    3.1005    0.7955 N.am      2 SEC2        0.0000 
     38 N          26.1420    1.8960    0.4840 N.am      8 SEL2        0.0000 
     39 N          27.2460    4.3050    1.1070 N.am      5 SEP2        0.0000 
     40 CA         26.6653   -1.2510    0.1802 C.3       3 GLC5        0.0000 
     41 CA         24.9260   -0.1610    0.5250 C.3       9 GLL5        0.0000 
     42 CA         28.5500   -1.7880    0.1970 C.3       6 GLP5        0.0000 
     43 CA         27.0385   -1.3858   -0.8062 C.3       3 GLC5        0.0000 
     44 CA         25.1360   -1.4520   -1.5270 C.3       9 GLL5        0.0000 
     45 CA         20.8639    3.2445    6.6499 C.3       3 GLC5        0.0000 
     46 CA         21.4680    2.0420    4.3710 C.3       9 GLL5        0.0000 
     47 CA         21.4600    3.6510    8.4710 C.3       6 GLP5        0.0000 
     48 CA         20.4369    1.4860    6.0364 C.3       3 GLC5        0.0000 
     49 CA         20.7810    3.0420    5.0800 C.3       9 GLL5        0.0000 
     50 CA         26.7368   -1.6428    3.1690 C.3       3 GLC5        0.0000 
     51 CA         24.9960   -2.8410    4.2420 C.3       9 GLL5        0.0000 
     52 CA         28.4470   -0.7720    2.7130 C.3       6 GLP5        0.0000 
     53 CA         24.5970   -2.1963    7.1893 C.3       3 GLC5        0.0000 
     54 CA         24.3980   -2.2480    5.3610 C.3       9 GLL5        0.0000 
     55 CA         26.4698   -0.5942    2.5520 C.3       3 GLC5        0.0000 
     56 CA         24.5360   -0.8860    2.9200 C.3       9 GLL5        0.0000 
     57 CA         22.2608   -1.1119    5.4084 C.3       3 GLC5        0.0000 
     58 CA         23.9750   -0.2940    4.0620 C.3       9 GLL5        0.0000 
     59 CA         25.8860   -5.1903    6.4680 C.3       3 GLC5        0.0000 
     60 CA         25.5590   -4.1950    4.3990 C.3       9 GLL5        0.0000 
     61 CA         25.7690   -6.1660    8.0270 C.3       6 GLP5        0.0000 
     62 CA         24.8749   -5.6890    2.8647 C.3       3 GLC5        0.0000 
     63 CA         24.1230   -6.7170    1.8090 C.3       6 GLP5        0.0000 
@<TRIPOS>BOND
@<TRIPOS>SUBSTRUCTURE
     1 ALC1        4 GROUP        1 X    ALC  0     ROOT ALC X 1
     2 SEC2       37 GROUP        1 X    SEC  0     **** SEC X 2
     3 GLC5        1 GROUP        1 X    GLC  0     **** GLC X 6
     4 ALP1        6 GROUP        1 Y    ALP  0     ROOT ALP Y 8
     5 SEP2       39 GROUP        1 Y    SEP  0     **** SEP Y 9
     6 GLP5        3 GROUP        1 Y    GLP  0     **** GLP Y 13
     7 ALL1        5 GROUP        1 Z    ALL  0     ROOT ALL Z 15
     8 SEL2       38 GROUP        1 Z    SEL  0     **** SEL Z 16
     9 GLL5        2 GROUP        1 Z    GLL  0     **** GLL Z 20
@<TRIPOS>SET

