#    Name: 3ska_053_2_ligand
#    Modification time : Mon Mar 24 17:47:04 2014

@<TRIPOS>MOLECULE
3ska_053_2_ligand
   45    48     1     0     0
SMALL
NO_CHARGES


@<TRIPOS>ATOM
      1 C1         24.9260   -0.1610    0.5250 C.2       1 053577      0.0000 
      2 C2         24.6350   -1.2670   -0.1980 C.2       1 053577      0.0000 
      3 C3         25.1360   -1.4520   -1.5270 C.2       1 053577      0.0000 
      4 C4         25.9180   -0.5150   -2.0920 C.2       1 053577      0.0000 
      5 N5         26.2480    0.6170   -1.3960 N.am      1 053577      0.0000 
      6 C6         25.8140    0.8750   -0.1090 C.2       1 053577      0.0000 
      7 C7         21.4680    2.0420    4.3710 C.ar      1 053577      0.0000 
      8 C8         20.7260    1.1710    3.5620 C.ar      1 053577      0.0000 
      9 C9         19.3400    1.3240    3.4870 C.ar      1 053577      0.0000 
     10 N10        18.6760    2.3010    4.1590 N.ar      1 053577      0.0000 
     11 C11        19.4110    3.1340    4.9320 C.ar      1 053577      0.0000 
     12 C12        20.7810    3.0420    5.0800 C.ar      1 053577      0.0000 
     13 C13        24.9960   -2.8410    4.2420 C.ar      1 053577      0.0000 
     14 C14        24.3980   -2.2480    5.3610 C.ar      1 053577      0.0000 
     15 C15        23.8780   -0.9510    5.3020 C.ar      1 053577      0.0000 
     16 C16        25.0570   -2.1860    3.0080 C.ar      1 053577      0.0000 
     17 C17        24.5360   -0.8860    2.9200 C.ar      1 053577      0.0000 
     18 C18        23.9750   -0.2940    4.0620 C.ar      1 053577      0.0000 
     19 N19        23.5870    0.9710    3.6930 N.pl3     1 053577      0.0000 
     20 C20        23.8580    1.2080    2.3630 C.2       1 053577      0.0000 
     21 C21        24.4490    0.0530    1.8620 C.2       1 053577      0.0000 
     22 C22        23.5490    2.4740    1.7460 C.2       1 053577      0.0000 
     23 O23        23.7070    3.5520    2.2790 O.co2     1 053577      0.0000 
     24 C24        22.9530    1.9620    4.5560 C.3       1 053577      0.0000 
     25 C25        25.5590   -4.1950    4.3990 C.3       1 053577      0.0000 
     26 O26        23.0650    2.3370    0.4900 O.co2     1 053577      0.0000 
     27 F27        26.4470   -4.2340    5.4190 F         1 053577      0.0000 
     28 F28        24.6000   -5.0890    4.6930 F         1 053577      0.0000 
     29 F29        26.1740   -4.6800    3.2950 F         1 053577      0.0000 
     30 O30        26.1420    1.8960    0.4840 O.2       1 053577      0.0000 
     31 N31        18.6280    0.4220    2.6960 N.pl3     1 053577      0.0000 
     32 H          24.0345   -2.0223    0.1913 H         1 053577      0.0000 
     33 H          24.8743   -2.3192   -2.0197 H         1 053577      0.0000 
     34 H          26.2787   -0.6404   -3.0601 H         1 053577      0.0000 
     35 H          26.8677    1.3356   -1.8630 H         1 053577      0.0000 
     36 H          21.1950    0.4343    3.0347 H         1 053577      0.0000 
     37 H          18.9137    3.9106    5.4625 H         1 053577      0.0000 
     38 H          21.2921    3.6793    5.6866 H         1 053577      0.0000 
     39 H          24.3403   -2.7790    6.2459 H         1 053577      0.0000 
     40 H          23.4595   -0.5114    6.0956 H         1 053577      0.0000 
     41 H          25.4657   -2.6358    2.1983 H         1 053577      0.0000 
     42 H          23.1647    1.7326    5.6210 H         1 053577      0.0000 
     43 H          23.3872    2.9660    4.3683 H         1 053577      0.0000 
     44 H          19.1633   -0.3071    2.2695 H         1 053577      0.0000 
     45 H          17.6436    0.5821    2.6235 H         1 053577      0.0000 
@<TRIPOS>BOND
     1    2    1 2    
     2    6    1 1    
     3   21    1 1    
     4    3    2 1    
     5   32    2 1    
     6    4    3 2    
     7   33    3 1    
     8    5    4 1    
     9   34    4 1    
    10    6    5 am   
    11   35    5 1    
    12   30    6 2    
    13    8    7 ar   
    14   12    7 ar   
    15   24    7 1    
    16    9    8 ar   
    17   36    8 1    
    18   10    9 ar   
    19   31    9 1    
    20   11   10 ar   
    21   12   11 ar   
    22   37   11 1    
    23   38   12 1    
    24   14   13 ar   
    25   16   13 ar   
    26   25   13 1    
    27   15   14 ar   
    28   39   14 1    
    29   18   15 ar   
    30   40   15 1    
    31   17   16 ar   
    32   41   16 1    
    33   18   17 ar   
    34   21   17 1    
    35   19   18 1    
    36   20   19 1    
    37   24   19 1    
    38   21   20 2    
    39   22   20 1    
    40   23   22 ar   
    41   26   22 ar   
    42   42   24 1    
    43   43   24 1    
    44   27   25 1    
    45   28   25 1    
    46   29   25 1    
    47   44   31 1    
    48   45   31 1    
@<TRIPOS>SUBSTRUCTURE
     1 053577      1 GROUP   
@<TRIPOS>SET

