#    Name: 2OAD_2_CAVITY_N1_ALL.mol2
#    Modification time : Tue Mar 11 02:16:22 2014

@<TRIPOS>MOLECULE
2OAD_2_CAVITY_N1_ALL.mol2
   92     0     5     0     0
SMALL
NO_CHARGES


@<TRIPOS>ATOM
      1 CA          0.4007  -18.9383  -27.1888 C.3       4 GLY6        0.0000 
      2 CA          1.6370  -19.0100  -28.0351 C.3       4 GLY6        0.0000 
      3 N           1.0340  -18.0314  -28.9989 N.2       2 ALA2        0.0000 
      4 CZ          1.6019  -18.7823  -25.4473 C.ar      3 PHE5        0.0000 
      5 CZ          2.8382  -18.8540  -26.2937 C.ar      3 PHE5        0.0000 
      6 DU         -0.2375  -17.7321  -25.5646 H         5 CUB7        0.0000 
      7 DU          0.9989  -17.8038  -26.4110 H         5 CUB7        0.0000 
      8 CA          2.2352  -17.8754  -27.2574 C.3       4 GLY6        0.0000 
      9 DU          0.3958  -16.8252  -27.3747 H         5 CUB7        0.0000 
     10 CZ          1.6322  -16.8968  -28.2211 C.ar      3 PHE5        0.0000 
     11 CZ          2.2001  -17.6477  -24.6695 C.ar      3 PHE5        0.0000 
     12 CZ          3.4364  -17.7194  -25.5159 C.ar      3 PHE5        0.0000 
     13 CZ         -0.8756  -16.5259  -23.9405 C.ar      3 PHE5        0.0000 
     14 CZ          0.3607  -16.5975  -24.7869 C.ar      3 PHE5        0.0000 
     15 DU          1.5971  -16.6692  -25.6333 H         5 CUB7        0.0000 
     16 OG          2.8334  -16.7408  -26.4796 O.2       1 SER1        0.0000 
     17 OG          4.0697  -16.8125  -27.3260 O.2       1 SER1        0.0000 
     18 CZ          0.9940  -15.6906  -26.5970 C.ar      3 PHE5        0.0000 
     19 CZ          2.2303  -15.7623  -27.4434 C.ar      3 PHE5        0.0000 
     20 CZ         -0.3077  -17.2768  -20.3889 C.ar      3 PHE5        0.0000 
     21 O          -2.1470  -16.2266  -20.5063 O.2       2 ALA2        0.0000 
     22 O          -0.9107  -16.2982  -21.3527 O.2       2 ALA2        0.0000 
     23 CZ          0.3256  -16.3699  -22.1990 C.ar      3 PHE5        0.0000 
     24 CZ          2.7983  -16.5132  -23.8918 C.ar      3 PHE5        0.0000 
     25 CZ          4.0346  -16.5848  -24.7382 C.ar      3 PHE5        0.0000 
     26 CA          5.2709  -16.6564  -25.5846 C.3       4 GLY6        0.0000 
     27 DU         -1.5137  -15.3196  -22.3164 H         5 CUB7        0.0000 
     28 DU         -0.2774  -15.3913  -23.1628 H         5 CUB7        0.0000 
     29 CZ          0.9589  -15.4629  -24.0091 C.ar      3 PHE5        0.0000 
     30 DU          2.1952  -15.5346  -24.8555 H         5 CUB7        0.0000 
     31 OG          3.4316  -15.6062  -25.7019 O.2       1 SER1        0.0000 
     32 CZ          1.5922  -14.5560  -25.8192 C.ar      3 PHE5        0.0000 
     33 CZ          2.8285  -14.6277  -26.6656 C.ar      3 PHE5        0.0000 
     34 CA          0.2905  -16.1422  -19.6112 C.3       4 GLY6        0.0000 
     35 CZ          1.5269  -16.2138  -20.4576 C.ar      3 PHE5        0.0000 
     36 OG          5.2358  -16.4288  -22.9967 O.2       1 SER1        0.0000 
     37 CA         -1.5488  -15.0920  -19.7285 C.3       4 GLY6        0.0000 
     38 O          -0.3125  -15.1636  -20.5749 O.2       2 ALA2        0.0000 
     39 CZ          0.9238  -15.2353  -21.4213 C.ar      3 PHE5        0.0000 
     40 CZ          2.1601  -15.3069  -22.2677 C.ar      3 PHE5        0.0000 
     41 CZ          3.3965  -15.3786  -23.1141 C.ar      3 PHE5        0.0000 
     42 OG          4.6328  -15.4502  -23.9604 O.2       1 SER1        0.0000 
     43 OG          5.8691  -15.5219  -24.8068 O.2       1 SER1        0.0000 
     44 O          -0.9156  -14.1851  -21.5386 O.2       2 ALA2        0.0000 
     45 O           0.3208  -14.2567  -22.3850 O.2       2 ALA2        0.0000 
     46 DU          1.5571  -14.3284  -23.2314 H         5 CUB7        0.0000 
     47 DU          2.7934  -14.4000  -24.0778 H         5 CUB7        0.0000 
     48 OG          4.0298  -14.4717  -24.9242 O.2       1 SER1        0.0000 
     49 CZ          2.1904  -13.4214  -25.0415 C.ar      3 PHE5        0.0000 
     50 CZ          3.4267  -13.4931  -25.8879 C.ar      3 PHE5        0.0000 
     51 N           2.1250  -15.0792  -19.6798 N.2       2 ALA2        0.0000 
     52 N           3.3614  -15.1509  -20.5262 N.2       2 ALA2        0.0000 
     53 O           1.5220  -14.1007  -20.6436 O.2       2 ALA2        0.0000 
     54 N           2.7583  -14.1723  -21.4899 N.2       2 ALA2        0.0000 
     55 OG          3.9947  -14.2440  -22.3363 O.2       1 SER1        0.0000 
     56 OG          5.2310  -14.3156  -23.1827 O.2       1 SER1        0.0000 
     57 O           0.9190  -13.1221  -21.6073 O.2       2 ALA2        0.0000 
     58 DU          2.1553  -13.1938  -22.4537 H         5 CUB7        0.0000 
     59 DU          3.3916  -13.2654  -23.3000 H         5 CUB7        0.0000 
     60 OG          4.6279  -13.3371  -24.1464 O.2       1 SER1        0.0000 
     61 OG          5.8643  -13.4087  -24.9928 O.2       1 SER1        0.0000 
     62 DU          1.5522  -12.2152  -23.4174 H         5 CUB7        0.0000 
     63 DU          2.7886  -12.2869  -24.2638 H         5 CUB7        0.0000 
     64 CZ          4.0249  -12.3585  -25.1101 C.ar      3 PHE5        0.0000 
     65 O           2.1202  -12.9661  -19.8658 O.2       2 ALA2        0.0000 
     66 N           3.3565  -13.0377  -20.7122 N.2       2 ALA2        0.0000 
     67 CA          4.5929  -13.1094  -21.5586 C.3       4 GLY6        0.0000 
     68 OG          5.8292  -13.1810  -22.4049 O.2       1 SER1        0.0000 
     69 O           2.7535  -12.0592  -21.6759 O.2       2 ALA2        0.0000 
     70 DU          3.9898  -12.1308  -22.5223 H         5 CUB7        0.0000 
     71 OG          5.2261  -12.2025  -23.3687 O.2       1 SER1        0.0000 
     72 OG          6.4625  -12.2741  -24.2150 O.2       1 SER1        0.0000 
     73 CA          7.6988  -12.3458  -25.0614 C.3       4 GLY6        0.0000 
     74 DU          2.1504  -11.0806  -22.6396 H         5 CUB7        0.0000 
     75 CA          3.3868  -11.1523  -23.4860 C.3       4 GLY6        0.0000 
     76 CA          4.6231  -11.2239  -24.3324 C.3       4 GLY6        0.0000 
     77 CA          5.8594  -11.2956  -25.1788 C.3       4 GLY6        0.0000 
     78 CA          7.0957  -11.3672  -26.0251 C.3       4 GLY6        0.0000 
     79 O           8.3321  -11.4389  -26.8715 O.2       2 ALA2        0.0000 
     80 CA          5.7941  -12.9534  -19.8171 C.3       4 GLY6        0.0000 
     81 CA          5.1910  -11.9748  -20.7808 C.3       4 GLY6        0.0000 
     82 O           3.3517  -10.9246  -20.8982 O.2       2 ALA2        0.0000 
     83 O           4.5880  -10.9962  -21.7445 O.2       2 ALA2        0.0000 
     84 O           5.8243  -11.0679  -22.5909 O.2       2 ALA2        0.0000 
     85 CA          7.0607  -11.1395  -23.4373 C.3       4 GLY6        0.0000 
     86 CA          8.2970  -11.2112  -24.2837 C.3       4 GLY6        0.0000 
     87 CA          9.5333  -11.2828  -25.1301 C.3       4 GLY6        0.0000 
     88 CA          3.9850  -10.0177  -22.7083 C.3       4 GLY6        0.0000 
     89 CA          5.2213  -10.0893  -23.5546 C.3       4 GLY6        0.0000 
     90 CA          8.9303  -10.3043  -26.0938 C.3       4 GLY6        0.0000 
     91 CA          2.1456   -8.9675  -22.8256 C.3       4 GLY6        0.0000 
     92 O           4.5831   -8.8831  -21.9305 O.2       2 ALA2        0.0000 
@<TRIPOS>BOND
@<TRIPOS>SUBSTRUCTURE
     1 SER1       16 GROUP   
     2 ALA2        3 GROUP   
     3 PHE5        4 GROUP   
     4 GLY6        1 GROUP   
     5 CUB7        6 GROUP   
@<TRIPOS>SET

