#    Name: 2oad_GTB_2_INTS_M
#    Modification time : Tue Mar 25 22:06:46 2014

@<TRIPOS>MOLECULE
2oad_GTB_2_INTS_M
   71     0    15     0     0
SMALL
NO_CHARGES


@<TRIPOS>ATOM
      1 OD1         3.7940   -7.1440  -15.9145 O.co2     3 ASC3        0.0000 
      2 OD1         4.5810   -8.7430  -16.3330 O.co2    13 ASL3        0.0000 
      3 OD1         3.0070   -5.5450  -15.4960 O.co2     8 ASP3        0.0000 
      4 OD1         3.3595   -8.0985  -15.5785 O.co2     3 ASC3        0.0000 
      5 OD1         2.1380   -7.4540  -14.8240 O.co2     8 ASP3        0.0000 
      6 O           3.3595   -8.0985  -15.5785 O.2       1 ALC1        0.0000 
      7 O           4.5810   -8.7430  -16.3330 O.2      11 ALL1        0.0000 
      8 O           2.1380   -7.4540  -14.8240 O.2       6 ALP1        0.0000 
      9 O           4.9625   -8.8805  -15.0055 O.2       1 ALC1        0.0000 
     10 O           5.3440   -9.0180  -13.6780 O.2       6 ALP1        0.0000 
     11 NZ          7.0980   -9.0460  -18.5850 N.4       4 LYC4        0.0000 
     12 NZ          6.8370   -9.6380  -16.7650 N.4      14 LYL4        0.0000 
     13 NZ          7.3590   -8.4540  -20.4050 N.4       9 LYP4        0.0000 
     14 N           7.7100  -10.6925  -15.6810 N.am      2 SEC2        0.0000 
     15 N           6.8370   -9.6380  -16.7650 N.am     12 SEL2        0.0000 
     16 N           8.5830  -11.7470  -14.5970 N.am      7 SEP2        0.0000 
     17 N           8.2870  -10.0645  -16.9145 N.am      2 SEC2        0.0000 
     18 N           9.7370  -10.4910  -17.0640 N.am      7 SEP2        0.0000 
     19 N           7.4610  -11.6960  -15.4100 N.am      2 SEC2        0.0000 
     20 N           6.3390  -11.6450  -16.2230 N.am     12 SEL2        0.0000 
     21 CA          2.2360  -12.9520  -17.5475 C.3       5 GLC5        0.0000 
     22 CA          3.7050  -11.8350  -18.2440 C.3      15 GLL5        0.0000 
     23 CA          0.7670  -14.0690  -16.8510 C.3      10 GLP5        0.0000 
     24 O           3.6820  -14.2130  -18.9505 O.2       1 ALC1        0.0000 
     25 O           2.9320  -13.4210  -19.7640 O.2      11 ALL1        0.0000 
     26 O           4.4320  -15.0050  -18.1370 O.2       6 ALP1        0.0000 
     27 CA          1.5470  -14.0465  -18.8980 C.3       5 GLC5        0.0000 
     28 CA          2.3270  -14.0240  -20.9450 C.3      15 GLL5        0.0000 
     29 N           1.9580  -16.0225  -18.3305 N.am      2 SEC2        0.0000 
     30 N           1.3730  -15.6090  -19.5170 N.am     12 SEL2        0.0000 
     31 N           2.5430  -16.4360  -17.1440 N.am      7 SEP2        0.0000 
     32 CA          6.1320  -12.4190  -21.3195 C.3       5 GLC5        0.0000 
     33 CA          4.8080  -13.9240  -22.3130 C.3      15 GLL5        0.0000 
     34 CA          7.4560  -10.9140  -20.3260 C.3      10 GLP5        0.0000 
     35 CA          0.1190  -17.4915  -21.4640 C.3       5 GLC5        0.0000 
     36 CA         -1.0010  -15.8930  -20.8900 C.3      15 GLL5        0.0000 
     37 CA          1.2390  -19.0900  -22.0380 C.3      10 GLP5        0.0000 
     38 CA         -1.2855  -17.2620  -19.6685 C.3       5 GLC5        0.0000 
     39 CA         -1.5700  -18.6310  -18.4470 C.3      10 GLP5        0.0000 
     40 CA         -0.7190  -14.6075  -19.1565 C.3       5 GLC5        0.0000 
     41 CA         -0.4370  -13.3220  -17.4230 C.3      10 GLP5        0.0000 
     42 NZ         -3.9630  -15.6580  -19.1900 N.4       4 LYC4        0.0000 
     43 NZ         -3.3180  -15.8050  -20.6030 N.4      14 LYL4        0.0000 
     44 NZ         -4.6080  -15.5110  -17.7770 N.4       9 LYP4        0.0000 
     45 N          -2.9445  -17.3570  -20.6660 N.am      2 SEC2        0.0000 
     46 N          -3.3180  -15.8050  -20.6030 N.am     12 SEL2        0.0000 
     47 N          -2.5710  -18.9090  -20.7290 N.am      7 SEP2        0.0000 
     48 N          -3.9630  -15.6580  -19.1900 N.am      2 SEC2        0.0000 
     49 N          -4.6080  -15.5110  -17.7770 N.am      7 SEP2        0.0000 
     50 NZ         -3.4045  -14.7190  -19.0180 N.4       4 LYC4        0.0000 
     51 NZ         -2.2010  -13.9270  -20.2590 N.4      14 LYL4        0.0000 
     52 N          -1.2945  -12.9575  -19.8475 N.am      2 SEC2        0.0000 
     53 N          -2.2010  -13.9270  -20.2590 N.am     12 SEL2        0.0000 
     54 N          -0.3880  -11.9880  -19.4360 N.am      7 SEP2        0.0000 
     55 CA          4.2815  -12.8470  -26.0150 C.3       5 GLC5        0.0000 
     56 CA          4.1970  -13.5780  -23.9990 C.3      15 GLL5        0.0000 
     57 CA          4.3660  -12.1160  -28.0310 C.3      10 GLP5        0.0000 
     58 CA          5.6293  -11.0033  -19.2097 C.3       5 GLC5        0.0000 
     59 CA          2.5715  -16.3275  -21.5715 C.3       5 GLC5        0.0000 
     60 CA          2.3030  -18.2180  -21.8190 C.3      10 GLP5        0.0000 
     61 CA          5.5358  -15.5230  -21.4690 C.3       5 GLC5        0.0000 
     62 CA          3.3530  -14.8500  -21.7030 C.3      15 GLL5        0.0000 
     63 CA          6.9910  -16.6590  -20.9300 C.3      10 GLP5        0.0000 
     64 CA          6.3767  -16.9398  -25.4895 C.3       5 GLC5        0.0000 
     65 CA          4.5280  -17.0260  -25.6260 C.3      15 GLL5        0.0000 
     66 CA          8.0710  -17.4490  -25.6910 C.3      10 GLP5        0.0000 
     67 CA          4.4485  -17.3682  -27.8725 C.3       5 GLC5        0.0000 
     68 CA          5.0280  -17.5990  -29.8710 C.3      10 GLP5        0.0000 
     69 CA          4.5146  -18.3854  -24.7225 C.3       5 GLC5        0.0000 
     70 CA          3.2100  -17.2490  -26.1220 C.3      15 GLL5        0.0000 
     71 CA          5.0830  -19.9310  -23.7400 C.3      10 GLP5        0.0000 
@<TRIPOS>BOND
@<TRIPOS>SUBSTRUCTURE
     1 ALC1        6 GROUP        1 X    ALC  0     ROOT ALC X 1
     2 SEC2       14 GROUP        1 X    SEC  0     **** SEC X 2
     3 ASC3        1 GROUP        1 X    ASC  0     **** ASC X 3
     4 LYC4       11 GROUP        1 X    LYC  0     **** LYC X 4
     5 GLC5       21 GROUP        1 X    GLC  0     **** GLC X 6
     6 ALP1        8 GROUP        1 Y    ALP  0     ROOT ALP Y 8
     7 SEP2       16 GROUP        1 Y    SEP  0     **** SEP Y 9
     8 ASP3        3 GROUP        1 Y    ASP  0     **** ASP Y 10
     9 LYP4       13 GROUP        1 Y    LYP  0     **** LYP Y 11
    10 GLP5       23 GROUP        1 Y    GLP  0     **** GLP Y 13
    11 ALL1        7 GROUP        1 Z    ALL  0     ROOT ALL Z 15
    12 SEL2       15 GROUP        1 Z    SEL  0     **** SEL Z 16
    13 ASL3        2 GROUP        1 Z    ASL  0     **** ASL Z 17
    14 LYL4       12 GROUP        1 Z    LYL  0     **** LYL Z 18
    15 GLL5       22 GROUP        1 Z    GLL  0     **** GLL Z 20
@<TRIPOS>SET

