#    Name: 2oad_GTB_2_ligand
#    Modification time : Tue Mar 25 22:06:46 2014

@<TRIPOS>MOLECULE
2oad_GTB_2_ligand
   51    51     1     0     0
SMALL
NO_CHARGES


@<TRIPOS>ATOM
      1 N1          4.5810   -8.7430  -16.3330 N.4       1 GTB210      0.0000 
      2 CA1         4.4870  -10.1350  -16.5780 C.3       1 GTB210      0.0000 
      3 C1          5.9910  -10.5010  -16.5180 C.2       1 GTB210      0.0000 
      4 O11         6.8370   -9.6380  -16.7650 O.co2     1 GTB210      0.0000 
      5 O12         6.3390  -11.6450  -16.2230 O.co2     1 GTB210      0.0000 
      6 CB1         3.9000  -10.3500  -17.9430 C.3       1 GTB210      0.0000 
      7 CG1         3.7050  -11.8350  -18.2440 C.3       1 GTB210      0.0000 
      8 CD1         3.0940  -12.1120  -19.5970 C.2       1 GTB210      0.0000 
      9 OE1         2.7950  -11.2190  -20.3980 O.2       1 GTB210      0.0000 
     10 N2          2.9320  -13.4210  -19.7640 N.am      1 GTB210      0.0000 
     11 CA2         2.3270  -14.0240  -20.9450 C.3       1 GTB210      0.0000 
     12 C2          1.1980  -14.9380  -20.5380 C.2       1 GTB210      0.0000 
     13 O2          1.3730  -15.6090  -19.5170 O.2       1 GTB210      0.0000 
     14 CB2         3.3530  -14.8500  -21.7030 C.3       1 GTB210      0.0000 
     15 SG2         4.8080  -13.9240  -22.3130 S.3       1 GTB210      0.0000 
     16 N3          0.0850  -14.9930  -21.2810 N.am      1 GTB210      0.0000 
     17 CA3        -1.0010  -15.8930  -20.8900 C.3       1 GTB210      0.0000 
     18 C3         -2.2700  -15.1500  -20.5610 C.2       1 GTB210      0.0000 
     19 O31        -3.3180  -15.8050  -20.6030 O.co2     1 GTB210      0.0000 
     20 O32        -2.2010  -13.9270  -20.2590 O.co2     1 GTB210      0.0000 
     21 C'          4.1970  -13.5780  -23.9990 C.3       1 GTB210      0.0000 
     22 C1'         3.8340  -14.8510  -24.7540 C.ar      1 GTB210      0.0000 
     23 C2'         4.8370  -15.8350  -24.9500 C.ar      1 GTB210      0.0000 
     24 C3'         4.5280  -17.0260  -25.6260 C.ar      1 GTB210      0.0000 
     25 C4'         3.2100  -17.2490  -26.1220 C.ar      1 GTB210      0.0000 
     26 N41         2.8910  -18.5240  -26.8380 N.pl3     1 GTB210      0.0000 
     27 O41         3.7370  -19.3820  -27.0160 O.2       1 GTB210      0.0000 
     28 O42         1.7660  -18.7030  -27.2570 O.2       1 GTB210      0.0000 
     29 C5'         2.2080  -16.2530  -25.9210 C.ar      1 GTB210      0.0000 
     30 C6'         2.5270  -15.0570  -25.2420 C.ar      1 GTB210      0.0000 
     31 H           3.9867  -10.6373  -15.8292 H         1 GTB210      0.0000 
     32 H           4.5610   -9.9205  -18.7031 H         1 GTB210      0.0000 
     33 H           2.9303   -9.8461  -18.0136 H         1 GTB210      0.0000 
     34 H           3.0655  -12.2734  -17.4576 H         1 GTB210      0.0000 
     35 H           4.6844  -12.3406  -18.1749 H         1 GTB210      0.0000 
     36 H           3.2440  -14.1098  -19.0249 H         1 GTB210      0.0000 
     37 H           1.9400  -13.2718  -21.6066 H         1 GTB210      0.0000 
     38 H           2.9699  -15.2866  -22.6196 H         1 GTB210      0.0000 
     39 H           3.8203  -15.6230  -21.1018 H         1 GTB210      0.0000 
     40 H          -0.0591  -14.4329  -22.1251 H         1 GTB210      0.0000 
     41 H          -0.7049  -16.4903  -20.0091 H         1 GTB210      0.0000 
     42 H          -1.2144  -16.6110  -21.7020 H         1 GTB210      0.0000 
     43 H           5.0179  -13.0402  -24.4272 H         1 GTB210      0.0000 
     44 H           3.3617  -12.9366  -23.8057 H         1 GTB210      0.0000 
     45 H           5.7810  -15.6709  -24.5972 H         1 GTB210      0.0000 
     46 H           5.2436  -17.7417  -25.7680 H         1 GTB210      0.0000 
     47 H           1.2641  -16.4114  -26.2702 H         1 GTB210      0.0000 
     48 H           1.8111  -14.3418  -25.1046 H         1 GTB210      0.0000 
     49 H           5.2596   -8.5349  -15.6285 H         1 GTB210      0.0000 
     50 H           4.8470   -8.2384  -17.1544 H         1 GTB210      0.0000 
     51 H           3.7103   -8.3608  -16.0233 H         1 GTB210      0.0000 
@<TRIPOS>BOND
     1    2    1 1    
     2   49    1 1    
     3   50    1 1    
     4   51    1 1    
     5    3    2 1    
     6    6    2 1    
     7   31    2 1    
     8    4    3 ar   
     9    5    3 ar   
    10    7    6 1    
    11   32    6 1    
    12   33    6 1    
    13    8    7 1    
    14   34    7 1    
    15   35    7 1    
    16    9    8 2    
    17   10    8 am   
    18   11   10 1    
    19   36   10 1    
    20   12   11 1    
    21   14   11 1    
    22   37   11 1    
    23   13   12 2    
    24   16   12 am   
    25   15   14 1    
    26   38   14 1    
    27   39   14 1    
    28   21   15 1    
    29   17   16 1    
    30   40   16 1    
    31   18   17 1    
    32   41   17 1    
    33   42   17 1    
    34   19   18 ar   
    35   20   18 ar   
    36   22   21 1    
    37   43   21 1    
    38   44   21 1    
    39   23   22 ar   
    40   30   22 ar   
    41   24   23 ar   
    42   45   23 1    
    43   25   24 ar   
    44   46   24 1    
    45   26   25 1    
    46   29   25 ar   
    47   27   26 2    
    48   28   26 2    
    49   30   29 ar   
    50   47   29 1    
    51   48   30 1    
@<TRIPOS>SUBSTRUCTURE
     1 GTB210      1 GROUP   
@<TRIPOS>SET

