#    Name: 2z2w_770_1_INTS_M
#    Modification time : Tue Mar 25 09:53:38 2014

@<TRIPOS>MOLECULE
2z2w_770_1_INTS_M
   50     0     9     0     0
SMALL
NO_CHARGES


@<TRIPOS>ATOM
      1 CA          1.5985   56.7960   27.9350 C.3       3 GLC5        0.0000 
      2 CA          2.0800   56.2180   29.6670 C.3       9 GLL5        0.0000 
      3 CA          1.1170   57.3740   26.2030 C.3       6 GLP5        0.0000 
      4 CA          3.5150   57.2075   28.7560 C.3       3 GLC5        0.0000 
      5 CA          4.9500   58.1970   27.8450 C.3       6 GLP5        0.0000 
      6 CA          3.5535   56.4615   31.0820 C.3       3 GLC5        0.0000 
      7 CA          5.0270   56.7050   32.4970 C.3       6 GLP5        0.0000 
      8 CA         -0.2205   55.6470   32.1990 C.3       3 GLC5        0.0000 
      9 CA          0.4820   54.3110   30.7400 C.3       9 GLL5        0.0000 
     10 CA         -0.9230   56.9830   33.6580 C.3       6 GLP5        0.0000 
     11 CA          0.6825   51.1245   31.1155 C.3       3 GLC5        0.0000 
     12 CA         -0.0470   53.0900   30.8090 C.3       9 GLL5        0.0000 
     13 CA          1.4120   49.1590   31.4220 C.3       6 GLP5        0.0000 
     14 N           3.8535   54.6680   31.7565 N.am      2 SEC2        0.0000 
     15 N           4.4850   54.2270   30.4030 N.am      8 SEL2        0.0000 
     16 N           3.2220   55.1090   33.1100 N.am      5 SEP2        0.0000 
     17 O           7.0780   55.7175   29.4205 O.2       1 ALC1        0.0000 
     18 O           6.1630   54.8730   28.9810 O.2       7 ALL1        0.0000 
     19 O           7.9930   56.5620   29.8600 O.2       4 ALP1        0.0000 
     20 N           8.6215   55.7725   26.8600 N.am      2 SEC2        0.0000 
     21 N           7.2250   55.3260   26.9760 N.am      8 SEL2        0.0000 
     22 N          10.0180   56.2190   26.7440 N.am      5 SEP2        0.0000 
     23 O           9.1605   55.4765   23.1230 O.2       1 ALC1        0.0000 
     24 O           8.1200   55.6870   22.2590 O.2       7 ALL1        0.0000 
     25 O          10.2010   55.2660   23.9870 O.2       4 ALP1        0.0000 
     26 CA         -0.0150   56.2335   29.7975 C.3       3 GLC5        0.0000 
     27 CA         -1.7760   57.0510   29.9080 C.3       6 GLP5        0.0000 
     28 CA          0.3407   55.0475   27.7683 C.3       3 GLC5        0.0000 
     29 CA          1.4120   54.6140   29.7070 C.3       9 GLL5        0.0000 
     30 CA         -0.9270   55.9890   26.2960 C.3       6 GLP5        0.0000 
     31 CA         -1.4181   53.6719   30.7649 C.3       3 GLC5        0.0000 
     32 CA         -3.0960   54.4360   31.2160 C.3       6 GLP5        0.0000 
     33 CA          0.8128   50.4480   29.7308 C.3       3 GLC5        0.0000 
     34 CA          0.3020   52.1150   29.8530 C.3       9 GLL5        0.0000 
     35 CA          0.8610   48.6470   30.1110 C.3       6 GLP5        0.0000 
     36 CA          4.7400   56.3173   27.1521 C.3       3 GLC5        0.0000 
     37 CA          4.5250   54.4440   25.4820 C.3       9 GLL5        0.0000 
     38 CA          1.9695   55.6314   26.1498 C.3       3 GLC5        0.0000 
     39 CA          2.7300   53.8240   27.6520 C.3       9 GLL5        0.0000 
     40 CA          4.1165   56.3475   21.4573 C.3       3 GLC5        0.0000 
     41 CA          4.5290   54.5610   21.8500 C.3       9 GLL5        0.0000 
     42 CA          3.0300   57.9220   21.2070 C.3       6 GLP5        0.0000 
     43 CA          5.3180   56.6243   23.4603 C.3       3 GLC5        0.0000 
     44 CA          6.8370   55.2480   22.5820 C.3       9 GLL5        0.0000 
     45 CA          3.9640   58.0550   23.6450 C.3       6 GLP5        0.0000 
     46 CA          7.6545   53.8064   22.2081 C.3       3 GLC5        0.0000 
     47 CA          6.5070   55.1390   23.9690 C.3       9 GLL5        0.0000 
     48 CA          8.8770   52.4850   21.3950 C.3       6 GLP5        0.0000 
     49 CA          4.1046   56.2220   24.0869 C.3       3 GLC5        0.0000 
     50 CA          4.1330   54.4040   23.1970 C.3       9 GLL5        0.0000 
@<TRIPOS>BOND
@<TRIPOS>SUBSTRUCTURE
     1 ALC1       17 GROUP        1 X    ALC  0     ROOT ALC X 1
     2 SEC2       14 GROUP        1 X    SEC  0     **** SEC X 2
     3 GLC5        1 GROUP        1 X    GLC  0     **** GLC X 6
     4 ALP1       19 GROUP        1 Y    ALP  0     ROOT ALP Y 8
     5 SEP2       16 GROUP        1 Y    SEP  0     **** SEP Y 9
     6 GLP5        3 GROUP        1 Y    GLP  0     **** GLP Y 13
     7 ALL1       18 GROUP        1 Z    ALL  0     ROOT ALL Z 15
     8 SEL2       15 GROUP        1 Z    SEL  0     **** SEL Z 16
     9 GLL5        2 GROUP        1 Z    GLL  0     **** GLL Z 20
@<TRIPOS>SET

