#    Name: 2z2w_770_1_ligand
#    Modification time : Tue Mar 25 09:53:38 2014

@<TRIPOS>MOLECULE
2z2w_770_1_ligand
   40    44     1     0     0
SMALL
NO_CHARGES


@<TRIPOS>ATOM
      1 CL1         2.0800   56.2180   29.6670 Cl        1 770901      0.0000 
      2 C8          1.4120   54.6140   29.7070 C.ar      1 770901      0.0000 
      3 C9          0.4820   54.3110   30.7400 C.ar      1 770901      0.0000 
      4 C10        -0.0470   53.0900   30.8090 C.ar      1 770901      0.0000 
      5 C11         0.3020   52.1150   29.8530 C.ar      1 770901      0.0000 
      6 C12         1.2270   52.3830   28.8480 C.ar      1 770901      0.0000 
      7 C7          1.8050   53.5980   28.7740 C.ar      1 770901      0.0000 
      8 C2          2.7300   53.8240   27.6520 C.ar      1 770901      0.0000 
      9 C3          4.0990   54.2830   27.9690 C.ar      1 770901      0.0000 
     10 C6          4.9460   54.4050   29.2160 C.2       1 770901      0.0000 
     11 O2          4.4850   54.2270   30.4030 O.2       1 770901      0.0000 
     12 N1          6.1630   54.8730   28.9810 N.am      1 770901      0.0000 
     13 C4          4.9710   54.5790   26.9040 C.ar      1 770901      0.0000 
     14 C5          6.2190   54.9110   27.5960 C.2       1 770901      0.0000 
     15 O1          7.2250   55.3260   26.9760 O.2       1 770901      0.0000 
     16 C13         4.5250   54.4440   25.4820 C.ar      1 770901      0.0000 
     17 C14         3.1320   54.0200   25.2110 C.ar      1 770901      0.0000 
     18 C1          2.2940   53.6910   26.3120 C.ar      1 770901      0.0000 
     19 C15         5.1910   54.6880   24.2250 C.ar      1 770901      0.0000 
     20 C16         4.1330   54.4040   23.1970 C.ar      1 770901      0.0000 
     21 N2          2.9680   54.0090   23.8490 N.pl3     1 770901      0.0000 
     22 C18         4.5290   54.5610   21.8500 C.ar      1 770901      0.0000 
     23 C20         5.8770   54.9850   21.5650 C.ar      1 770901      0.0000 
     24 C17         6.5070   55.1390   23.9690 C.ar      1 770901      0.0000 
     25 C19         6.8370   55.2480   22.5820 C.ar      1 770901      0.0000 
     26 N3          8.1200   55.6870   22.2590 N.am      1 770901      0.0000 
     27 C21         8.5360   55.9910   21.0070 C.2       1 770901      0.0000 
     28 O3          7.8340   55.8570   20.0160 O.2       1 770901      0.0000 
     29 H           0.2460   55.0574   31.4092 H         1 770901      0.0000 
     30 H          -0.7177   52.8234   31.5517 H         1 770901      0.0000 
     31 H          -0.1431   51.1822   29.9058 H         1 770901      0.0000 
     32 H           1.4569   51.6373   28.1686 H         1 770901      0.0000 
     33 H           6.8384   55.1241   29.5678 H         1 770901      0.0000 
     34 H           1.3388   53.3448   26.1251 H         1 770901      0.0000 
     35 H           2.1495   53.7596   23.3884 H         1 770901      0.0000 
     36 H           3.8892   54.3827   21.0913 H         1 770901      0.0000 
     37 H           6.1517   55.1012   20.5731 H         1 770901      0.0000 
     38 H           7.1451   55.3602   24.6776 H         1 770901      0.0000 
     39 H           8.8102   55.7850   23.0656 H         1 770901      0.0000 
     40 H           9.5517   56.3683   20.9392 H         1 770901      0.0000 
@<TRIPOS>BOND
     1    2    1 1    
     2    3    2 ar   
     3    7    2 ar   
     4    4    3 ar   
     5   29    3 1    
     6    5    4 ar   
     7   30    4 1    
     8    6    5 ar   
     9   31    5 1    
    10    7    6 ar   
    11   32    6 1    
    12    8    7 1    
    13    9    8 ar   
    14   18    8 ar   
    15   10    9 1    
    16   13    9 ar   
    17   11   10 2    
    18   12   10 am   
    19   14   12 am   
    20   33   12 1    
    21   14   13 1    
    22   16   13 ar   
    23   15   14 2    
    24   17   16 ar   
    25   19   16 1    
    26   18   17 ar   
    27   21   17 1    
    28   34   18 1    
    29   20   19 ar   
    30   24   19 ar   
    31   21   20 1    
    32   22   20 ar   
    33   35   21 1    
    34   23   22 ar   
    35   36   22 1    
    36   25   23 ar   
    37   37   23 1    
    38   25   24 ar   
    39   38   24 1    
    40   26   25 1    
    41   27   26 am   
    42   39   26 1    
    43   28   27 2    
    44   40   27 1    
@<TRIPOS>SUBSTRUCTURE
     1 770901      1 GROUP   
@<TRIPOS>SET

