#    Name: 3L14_1_CAVITY_N1_ALL.mol2
#    Modification time : Tue Mar 11 10:06:26 2014

@<TRIPOS>MOLECULE
3L14_1_CAVITY_N1_ALL.mol2
   69     0     6     0     0
SMALL
NO_CHARGES


@<TRIPOS>ATOM
      1 CA         -1.0481    6.4917   13.6813 C.3       5 GLY6        0.0000 
      2 CA         -2.0972    5.4592   13.9699 C.3       5 GLY6        0.0000 
      3 CZ         -3.1640    6.5046   13.8319 C.ar      4 PHE5        0.0000 
      4 N          -1.1365    4.1120   12.6424 N.2       2 ALA2        0.0000 
      5 DU         -2.2034    5.1574   12.5044 H         6 CUB7        0.0000 
      6 DU         -3.2702    6.2028   12.3664 H         6 CUB7        0.0000 
      7 N          -0.1759    2.7648   11.3149 N.2       2 ALA2        0.0000 
      8 N          -1.2427    3.8102   11.1769 N.2       2 ALA2        0.0000 
      9 DU         -3.3764    5.9010   10.9009 H         6 CUB7        0.0000 
     10 N          -1.3489    3.5084    9.7114 N.2       2 ALA2        0.0000 
     11 CA         -4.1069    5.7739   15.5860 C.3       5 GLY6        0.0000 
     12 CA         -3.1463    4.4267   14.2585 C.3       5 GLY6        0.0000 
     13 CZ         -4.2131    5.4721   14.1206 C.ar      4 PHE5        0.0000 
     14 OG         -2.1856    3.0795   12.9310 O.2       1 SER1        0.0000 
     15 OG         -3.2525    4.1249   12.7930 O.2       1 SER1        0.0000 
     16 O          -4.3193    5.1703   12.6551 O.2       2 ALA2        0.0000 
     17 CZ         -5.3861    6.2157   12.5171 C.ar      4 PHE5        0.0000 
     18 CZ         -6.4529    7.2611   12.3791 C.ar      4 PHE5        0.0000 
     19 N          -1.2250    1.7323   11.6035 N.2       2 ALA2        0.0000 
     20 N          -2.2918    2.7777   11.4655 N.2       2 ALA2        0.0000 
     21 DU         -3.3586    3.8231   11.3276 H         6 CUB7        0.0000 
     22 O          -4.4255    4.8685   11.1896 O.2       2 ALA2        0.0000 
     23 O          -5.4923    5.9139   11.0516 O.2       2 ALA2        0.0000 
     24 N          -2.3980    2.4759   10.0001 N.2       2 ALA2        0.0000 
     25 O          -3.4648    3.5213    9.8621 O.2       2 ALA2        0.0000 
     26 O          -4.5316    4.5667    9.7241 O.2       2 ALA2        0.0000 
     27 CA         -4.0892    3.6960   16.0127 C.3       5 GLY6        0.0000 
     28 CA         -5.1560    4.7414   15.8747 C.3       5 GLY6        0.0000 
     29 CZ         -6.2228    5.7868   15.7367 C.ar      4 PHE5        0.0000 
     30 OG         -4.1954    3.3942   14.5472 O.2       1 SER1        0.0000 
     31 DU         -5.2622    4.4396   14.4092 H         6 CUB7        0.0000 
     32 CZ         -6.3290    5.4850   14.2712 C.ar      4 PHE5        0.0000 
     33 CZ         -7.3958    6.5304   14.1332 C.ar      4 PHE5        0.0000 
     34 OG         -3.2348    2.0470   13.2197 O.2       1 SER1        0.0000 
     35 OG         -4.3016    3.0924   13.0817 O.2       1 SER1        0.0000 
     36 O          -5.3684    4.1378   12.9437 O.2       2 ALA2        0.0000 
     37 O          -7.5020    6.2286   12.6677 O.2       2 ALA2        0.0000 
     38 OG         -3.3409    1.7452   11.7542 O.2       1 SER1        0.0000 
     39 O          -4.4078    2.7906   11.6162 O.2       2 ALA2        0.0000 
     40 O          -3.4471    1.4434   10.2887 O.2       2 ALA2        0.0000 
     41 O          -4.5139    2.4888   10.1507 O.2       2 ALA2        0.0000 
     42 CA         -5.0321    2.9653   17.7668 C.3       5 GLY6        0.0000 
     43 CA         -6.0989    4.0107   17.6288 C.3       5 GLY6        0.0000 
     44 OG         -4.0715    1.6181   16.4393 O.2       1 SER1        0.0000 
     45 CA         -5.1383    2.6635   16.3013 C.3       5 GLY6        0.0000 
     46 CA         -6.2051    3.7089   16.1633 C.3       5 GLY6        0.0000 
     47 CA         -7.2719    4.7543   16.0253 C.3       5 GLY6        0.0000 
     48 OG         -4.1777    1.3163   14.9738 O.2       1 SER1        0.0000 
     49 DU         -5.2445    2.3617   14.8358 H         6 CUB7        0.0000 
     50 CA         -6.3113    3.4071   14.6978 C.3       5 GLY6        0.0000 
     51 CA         -7.3781    4.4525   14.5598 C.3       5 GLY6        0.0000 
     52 OG         -4.2839    1.0145   13.5083 O.2       1 SER1        0.0000 
     53 O          -5.3507    2.0599   13.3703 O.2       2 ALA2        0.0000 
     54 CA         -3.3232   -0.3327   12.1808 C.3       5 GLY6        0.0000 
     55 CA         -4.3901    0.7127   12.0428 C.3       5 GLY6        0.0000 
     56 O          -5.4569    1.7581   11.9048 O.2       2 ALA2        0.0000 
     57 O          -4.4962    0.4109   10.5773 O.2       2 ALA2        0.0000 
     58 CA         -6.0812    1.9328   18.0554 C.3       5 GLY6        0.0000 
     59 CA         -7.1481    2.9782   17.9174 C.3       5 GLY6        0.0000 
     60 OD1        -5.1206    0.5856   16.7279 O.3       3 ASP3        0.0000 
     61 OD1        -6.1874    1.6310   16.5899 O.3       3 ASP3        0.0000 
     62 CA         -7.2542    2.6764   16.4520 C.3       5 GLY6        0.0000 
     63 OD1        -5.2268    0.2838   15.2624 O.3       3 ASP3        0.0000 
     64 N          -6.2936    1.3292   15.1245 N.2       2 ALA2        0.0000 
     65 CA         -4.3723   -1.3652   12.4694 C.3       5 GLY6        0.0000 
     66 N          -5.4392   -0.3198   12.3315 N.2       2 ALA2        0.0000 
     67 CA         -4.4785   -1.6670   11.0040 C.3       5 GLY6        0.0000 
     68 CA         -5.5453   -0.6216   10.8660 C.3       5 GLY6        0.0000 
     69 OD1        -7.2365    0.5985   16.8786 O.3       3 ASP3        0.0000 
@<TRIPOS>BOND
@<TRIPOS>SUBSTRUCTURE
     1 SER1       14 GROUP   
     2 ALA2        4 GROUP   
     3 ASP3       60 GROUP   
     4 PHE5        3 GROUP   
     5 GLY6        1 GROUP   
     6 CUB7        5 GROUP   
@<TRIPOS>SET

