#    Name: 3l14_I7B_1_INTS_M
#    Modification time : Mon Mar 24 20:46:23 2014

@<TRIPOS>MOLECULE
3l14_I7B_1_INTS_M
   38     0    12     0     0
SMALL
NO_CHARGES


@<TRIPOS>ATOM
      1 CA         -3.3260    0.4165   14.5300 C.3       4 GLC5        0.0000 
      2 CA         -5.0850    1.7520   14.7190 C.3      12 GLL5        0.0000 
      3 CA         -1.5670   -0.9190   14.3410 C.3       8 GLP5        0.0000 
      4 CA         -3.5725    4.5790   15.6545 C.3       4 GLC5        0.0000 
      5 CA         -5.1160    4.1260   14.0940 C.3      12 GLL5        0.0000 
      6 CA         -2.0290    5.0320   17.2150 C.3       8 GLP5        0.0000 
      7 CA         -7.6840    5.0020   15.5750 C.3       4 GLC5        0.0000 
      8 CA         -5.7320    4.3960   15.3070 C.3      12 GLL5        0.0000 
      9 CA         -9.6360    5.6080   15.8430 C.3       8 GLP5        0.0000 
     10 Zn         -5.7715    0.5140   13.3200 Zn        3 ZIC7        0.0000 
     11 Zn         -4.7560    2.8770   11.1520 Zn       11 ZIL7        0.0000 
     12 Zn         -6.7870   -1.8490   15.4880 Zn        7 ZIP7        0.0000 
     13 N          -1.8690    2.0265   13.5125 N.am      2 SEC2        0.0000 
     14 N          -2.5160    2.6760   12.3060 N.am     10 SEL2        0.0000 
     15 N          -1.2220    1.3770   14.7190 N.am      6 SEP2        0.0000 
     16 O          -4.6045   -1.4815   17.0540 O.2       1 ALC1        0.0000 
     17 O          -5.5340   -0.6580   16.3600 O.2       9 ALL1        0.0000 
     18 O          -3.6750   -2.3050   17.7480 O.2       5 ALP1        0.0000 
     19 Zn         -6.1605   -1.2535   15.9240 Zn        3 ZIC7        0.0000 
     20 Zn         -5.5340   -0.6580   16.3600 Zn       11 ZIL7        0.0000 
     21 N          -4.0800    0.5275   18.7530 N.am      2 SEC2        0.0000 
     22 N          -5.4210    0.9720   18.2730 N.am     10 SEL2        0.0000 
     23 N          -2.7390    0.0830   19.2330 N.am      6 SEP2        0.0000 
     24 CA         -8.1865    4.6960   16.7405 C.3       4 GLC5        0.0000 
     25 CA         -6.7370    3.7840   17.6380 C.3      12 GLL5        0.0000 
     26 CA         -6.8490    5.4980   18.2260 C.3       4 GLC5        0.0000 
     27 CA         -6.9610    7.2120   18.8140 C.3       8 GLP5        0.0000 
     28 CA         -8.2120    3.3765   18.5320 C.3       4 GLC5        0.0000 
     29 CA         -9.6870    2.9690   19.4260 C.3       8 GLP5        0.0000 
     30 CA         -5.2175    4.5690   18.3245 C.3       4 GLC5        0.0000 
     31 CA         -3.6980    5.3540   19.0110 C.3       8 GLP5        0.0000 
     32 CA         -6.5165    4.1275   19.7645 C.3       4 GLC5        0.0000 
     33 CA         -6.2960    4.4710   21.8910 C.3       8 GLP5        0.0000 
     34 CA         -7.8138    2.9605   15.5823 C.3       4 GLC5        0.0000 
     35 CA         -6.0240    3.4020   16.2190 C.3      12 GLL5        0.0000 
     36 CA         -9.7840    3.2080   15.1010 C.3       8 GLP5        0.0000 
     37 CA         -4.3598    3.6517   17.0183 C.3       4 GLC5        0.0000 
     38 CA         -2.9490    4.3420   18.2010 C.3       8 GLP5        0.0000 
@<TRIPOS>BOND
@<TRIPOS>SUBSTRUCTURE
     1 ALC1       16 GROUP        1 X    ALC  0     ROOT ALC X 1
     2 SEC2       13 GROUP        1 X    SEC  0     **** SEC X 2
     3 ZIC7       10 GROUP        1 X    ZIC  0     **** ZIC X 5
     4 GLC5        1 GROUP        1 X    GLC  0     **** GLC X 6
     5 ALP1       18 GROUP        1 Y    ALP  0     ROOT ALP Y 8
     6 SEP2       15 GROUP        1 Y    SEP  0     **** SEP Y 9
     7 ZIP7       12 GROUP        1 Y    ZIP  0     **** ZIP Y 12
     8 GLP5        3 GROUP        1 Y    GLP  0     **** GLP Y 13
     9 ALL1       17 GROUP        1 Z    ALL  0     ROOT ALL Z 15
    10 SEL2       14 GROUP        1 Z    SEL  0     **** SEL Z 16
    11 ZIL7       11 GROUP        1 Z    ZIL  0     **** ZIL Z 19
    12 GLL5        2 GROUP        1 Z    GLL  0     **** GLL Z 20
@<TRIPOS>SET

