#    Name: 3l14_I7B_1_ligand
#    Modification time : Mon Mar 24 20:46:23 2014

@<TRIPOS>MOLECULE
3l14_I7B_1_ligand
   23    23     1     0     0
SMALL
NO_CHARGES


@<TRIPOS>ATOM
      1 C2         -5.0850    1.7520   14.7190 C.ar      1 I7B301      0.0000 
      2 C1         -4.7770    2.7170   13.7550 C.ar      1 I7B301      0.0000 
      3 C6         -5.1160    4.1260   14.0940 C.ar      1 I7B301      0.0000 
      4 C5         -5.7320    4.3960   15.3070 C.ar      1 I7B301      0.0000 
      5 C4         -6.0240    3.4020   16.2190 C.ar      1 I7B301      0.0000 
      6 C3         -5.6630    2.0240   15.9080 C.ar      1 I7B301      0.0000 
      7 S1         -4.0650    2.3080   12.2580 S.o2      1 I7B301      0.0000 
      8 N1         -4.7560    2.8770   11.1520 N.pl3     1 I7B301      0.0000 
      9 O2         -4.0890    0.7770   12.1650 O.2       1 I7B301      0.0000 
     10 O1         -2.5160    2.6760   12.3060 O.2       1 I7B301      0.0000 
     11 S2         -6.0770    0.6850   17.0020 S.o2      1 I7B301      0.0000 
     12 N2         -5.5340   -0.6580   16.3600 N.pl3     1 I7B301      0.0000 
     13 O3         -7.5280    0.6790   17.0120 O.2       1 I7B301      0.0000 
     14 O4         -5.4210    0.9720   18.2730 O.2       1 I7B301      0.0000 
     15 N3         -4.7920    5.2700   13.2050 N.pl3     1 I7B301      0.0000 
     16 CL1        -6.7370    3.7840   17.6380 Cl        1 I7B301      0.0000 
     17 H          -4.8404    0.7446   14.4814 H         1 I7B301      0.0000 
     18 H          -5.9820    5.3851   15.5352 H         1 I7B301      0.0000 
     19 H          -4.3589    2.7066   10.2502 H         1 I7B301      0.0000 
     20 H          -5.5805    3.3993   11.3698 H         1 I7B301      0.0000 
     21 H          -4.8470   -1.1535   16.8915 H         1 I7B301      0.0000 
     22 H          -4.3615    5.0407   12.3320 H         1 I7B301      0.0000 
     23 H          -5.0304    6.1774   13.5510 H         1 I7B301      0.0000 
@<TRIPOS>BOND
     1    2    1 ar   
     2    6    1 ar   
     3   17    1 1    
     4    3    2 ar   
     5    7    2 1    
     6    4    3 ar   
     7   15    3 1    
     8    5    4 ar   
     9   18    4 1    
    10    6    5 ar   
    11   16    5 1    
    12   11    6 1    
    13    8    7 1    
    14    9    7 2    
    15   10    7 2    
    16   19    8 1    
    17   20    8 1    
    18   12   11 1    
    19   13   11 2    
    20   14   11 2    
    21   21   12 1    
    22   22   15 1    
    23   23   15 1    
@<TRIPOS>SUBSTRUCTURE
     1 I7B301      1 GROUP   
@<TRIPOS>SET

