#    Name: 2vwu_7X1_1_INTS_M
#    Modification time : Tue Mar 25 03:11:56 2014

@<TRIPOS>MOLECULE
2vwu_7X1_1_INTS_M
   84     0     6     0     0
SMALL
NO_CHARGES


@<TRIPOS>ATOM
      1 CA          8.4980   11.9945   11.7675 C.3       2 GLC5        0.0000 
      2 CA          9.5400   10.4300   10.6250 C.3       6 GLL5        0.0000 
      3 CA          7.4560   13.5590   12.9100 C.3       4 GLP5        0.0000 
      4 CA          9.2000    9.6350   12.6540 C.3       2 GLC5        0.0000 
      5 CA          8.8600    8.8400   14.6830 C.3       4 GLP5        0.0000 
      6 CA         11.7845    7.3345    9.5990 C.3       2 GLC5        0.0000 
      7 CA         11.0830    8.3240   11.3970 C.3       6 GLL5        0.0000 
      8 CA         12.4860    6.3450    7.8010 C.3       4 GLP5        0.0000 
      9 CA         10.9750    5.3205   14.6785 C.3       2 GLC5        0.0000 
     10 CA          9.2710    4.2400   13.7200 C.3       6 GLL5        0.0000 
     11 CA         12.6790    6.4010   15.6370 C.3       4 GLP5        0.0000 
     12 CA         11.0925    5.2505   15.7760 C.3       2 GLC5        0.0000 
     13 CA          9.5060    4.1000   15.9150 C.3       6 GLL5        0.0000 
     14 CA          9.6465    5.1880   17.5700 C.3       2 GLC5        0.0000 
     15 CA          9.7870    6.2760   19.2250 C.3       4 GLP5        0.0000 
     16 CA          7.7600    4.8005   15.7050 C.3       2 GLC5        0.0000 
     17 CA          6.0140    5.5010   15.4950 C.3       4 GLP5        0.0000 
     18 CA         10.2375    2.9215   17.6805 C.3       2 GLC5        0.0000 
     19 CA         10.9690    1.7430   19.4460 C.3       4 GLP5        0.0000 
     20 CA         10.4265    2.4305   15.3410 C.3       2 GLC5        0.0000 
     21 CA         11.3470    0.7610   14.7670 C.3       4 GLP5        0.0000 
     22 CA         10.7425    2.7470   10.5860 C.3       2 GLC5        0.0000 
     23 CA          9.0240    3.9330    9.7830 C.3       6 GLL5        0.0000 
     24 CA         12.4610    1.5610   11.3890 C.3       4 GLP5        0.0000 
     25 CA         10.8490    4.1745    9.5460 C.3       2 GLC5        0.0000 
     26 CA         12.6740    4.4160    9.3090 C.3       4 GLP5        0.0000 
     27 CA          9.6665    2.4345    8.8605 C.3       2 GLC5        0.0000 
     28 CA         10.3090    0.9360    7.9380 C.3       4 GLP5        0.0000 
     29 N          12.3150    3.9860   13.7160 N.am      1 SEC2        0.0000 
     30 N          12.2320    5.0140   12.6010 N.am      5 SEL2        0.0000 
     31 N          12.3980    2.9580   14.8310 N.am      3 SEP2        0.0000 
     32 CA         13.1050    5.8235   14.1940 C.3       2 GLC5        0.0000 
     33 CA         13.5310    5.2460   12.7510 C.3       6 GLL5        0.0000 
     34 CA         12.9960    3.4035   12.0700 C.3       2 GLC5        0.0000 
     35 CA         13.0830    3.3990   13.8790 C.3       2 GLC5        0.0000 
     36 CA         12.6350    1.5520   15.0070 C.3       4 GLP5        0.0000 
     37 CA         15.3400    5.5045   13.8245 C.3       2 GLC5        0.0000 
     38 CA         17.1490    5.7630   14.8980 C.3       4 GLP5        0.0000 
     39 CA         15.0360    4.7830   11.6000 C.3       2 GLC5        0.0000 
     40 CA         16.5410    4.3200   10.4490 C.3       4 GLP5        0.0000 
     41 CA         13.1025    4.8310   11.0300 C.3       2 GLC5        0.0000 
     42 N          15.5695    6.3975   12.5105 N.am      1 SEC2        0.0000 
     43 N          14.0540    6.4310   12.4770 N.am      5 SEL2        0.0000 
     44 N          17.0850    6.3640   12.5440 N.am      3 SEP2        0.0000 
     45 CA         14.7770   10.5905    9.5710 C.3       2 GLC5        0.0000 
     46 CA         14.8550   11.2490   11.3560 C.3       6 GLL5        0.0000 
     47 CA         14.6990    9.9320    7.7860 C.3       4 GLP5        0.0000 
     48 CA         16.8265   12.0650    8.7300 C.3       2 GLC5        0.0000 
     49 CA         15.2680   13.2080    9.8540 C.3       6 GLL5        0.0000 
     50 CA         18.3850   10.9220    7.6060 C.3       4 GLP5        0.0000 
     51 CA         14.9835   11.5700    8.8200 C.3       2 GLC5        0.0000 
     52 CA         11.8823   10.1907   12.7722 C.3       2 GLC5        0.0000 
     53 CA         11.6500    9.5650   11.1600 C.3       6 GLL5        0.0000 
     54 CA         12.3980   11.4370   14.2660 C.3       4 GLP5        0.0000 
     55 CA         10.1725    8.3158   13.1567 C.3       2 GLC5        0.0000 
     56 CA          7.4783    4.6452   13.0478 C.3       2 GLC5        0.0000 
     57 CA          9.3860    4.5130   12.3770 C.3       6 GLL5        0.0000 
     58 CA          5.6280    4.9140   13.0470 C.3       4 GLP5        0.0000 
     59 CA         10.8950    4.2383   10.6163 C.3       2 GLC5        0.0000 
     60 CA          8.8460    3.6080   11.4700 C.3       6 GLL5        0.0000 
     61 CA          6.9870    3.7680   13.3685 C.3       2 GLC5        0.0000 
     62 CA          8.6130    3.0780   14.1410 C.3       6 GLL5        0.0000 
     63 CA          7.9055    1.3485   15.4265 C.3       2 GLC5        0.0000 
     64 CA          7.4650    0.0750   17.1630 C.3       4 GLP5        0.0000 
     65 CA          8.3592    0.4203   12.3955 C.3       2 GLC5        0.0000 
     66 CA          8.0790    2.1660   13.2390 C.3       6 GLL5        0.0000 
     67 CA          8.5720   -1.4580   12.2300 C.3       4 GLP5        0.0000 
     68 CA          9.9288    1.8367   14.1759 C.3       2 GLC5        0.0000 
     69 CA          7.0790    3.9668   12.3618 C.3       2 GLC5        0.0000 
     70 CA          8.2140    2.4310   11.8830 C.3       6 GLL5        0.0000 
     71 CA         10.5630    2.4034   11.6461 C.3       2 GLC5        0.0000 
     72 CA         12.5695    6.7184   13.8294 C.3       2 GLC5        0.0000 
     73 CA         11.8870    7.2590   11.8640 C.3       6 GLL5        0.0000 
     74 CA         15.1258    6.9627   11.0482 C.3       2 GLC5        0.0000 
     75 CA         13.2870    7.4600   12.0330 C.3       6 GLL5        0.0000 
     76 CA         16.6890    5.8320   10.2010 C.3       4 GLP5        0.0000 
     77 CA         12.5670    5.7259   10.6654 C.3       2 GLC5        0.0000 
     78 CA         12.9172   10.3385   12.9032 C.3       2 GLC5        0.0000 
     79 CA         13.8380    8.7270   11.7580 C.3       6 GLL5        0.0000 
     80 CA         14.0678    9.5860    9.6632 C.3       2 GLC5        0.0000 
     81 CA         13.0350    9.7530   11.3230 C.3       6 GLL5        0.0000 
     82 CA         13.6668   11.7255   12.7963 C.3       2 GLC5        0.0000 
     83 CA         15.9177   11.4260   12.9958 C.3       2 GLC5        0.0000 
     84 CA         16.9000   10.8380   14.6650 C.3       4 GLP5        0.0000 
@<TRIPOS>BOND
@<TRIPOS>SUBSTRUCTURE
     1 SEC2       29 GROUP        1 X    SEC  0     ROOT SEC X 2
     2 GLC5        1 GROUP        1 X    GLC  0     **** GLC X 6
     3 SEP2       31 GROUP        1 Y    SEP  0     ROOT SEP Y 9
     4 GLP5        3 GROUP        1 Y    GLP  0     **** GLP Y 13
     5 SEL2       30 GROUP        1 Z    SEL  0     ROOT SEL Z 16
     6 GLL5        2 GROUP        1 Z    GLL  0     **** GLL Z 20
@<TRIPOS>SET

