#    Name: 2vwu_7X1_1_ligand
#    Modification time : Tue Mar 25 03:11:56 2014

@<TRIPOS>MOLECULE
2vwu_7X1_1_ligand
   61    65     1     0     0
SMALL
NO_CHARGES


@<TRIPOS>ATOM
      1 C1          9.5400   10.4300   10.6250 C.3       1 7X11888     0.0000 
      2 O2         10.9620   10.6640   10.7240 O.3       1 7X11888     0.0000 
      3 C3         11.6500    9.5650   11.1600 C.ar      1 7X11888     0.0000 
      4 C4         11.0830    8.3240   11.3970 C.ar      1 7X11888     0.0000 
      5 C5         11.8870    7.2590   11.8640 C.ar      1 7X11888     0.0000 
      6 C6         11.3790    5.9640   12.1570 C.ar      1 7X11888     0.0000 
      7 N7         10.0200    5.7030   11.9640 N.pl3     1 7X11888     0.0000 
      8 C8          9.3860    4.5130   12.3770 C.ar      1 7X11888     0.0000 
      9 C9          9.2710    4.2400   13.7200 C.ar      1 7X11888     0.0000 
     10 O10         9.7110    4.9620   14.7840 O.3       1 7X11888     0.0000 
     11 C11         9.5060    4.1000   15.9150 C.3       1 7X11888     0.0000 
     12 O12         8.6340    3.0500   15.4800 O.3       1 7X11888     0.0000 
     13 C13         8.6130    3.0780   14.1410 C.ar      1 7X11888     0.0000 
     14 C14         8.0790    2.1660   13.2390 C.ar      1 7X11888     0.0000 
     15 C15         8.2140    2.4310   11.8830 C.ar      1 7X11888     0.0000 
     16 C16         8.8460    3.6080   11.4700 C.ar      1 7X11888     0.0000 
     17 CL1         9.0240    3.9330    9.7830 Cl        1 7X11888     0.0000 
     18 N18        12.2320    5.0140   12.6010 N.ar      1 7X11888     0.0000 
     19 C19        13.5310    5.2460   12.7510 C.ar      1 7X11888     0.0000 
     20 N20        14.0540    6.4310   12.4770 N.ar      1 7X11888     0.0000 
     21 C21        13.2870    7.4600   12.0330 C.ar      1 7X11888     0.0000 
     22 C22        13.8380    8.7270   11.7580 C.ar      1 7X11888     0.0000 
     23 C23        13.0350    9.7530   11.3230 C.ar      1 7X11888     0.0000 
     24 O24        13.4960   10.9990   11.0300 O.3       1 7X11888     0.0000 
     25 C25        14.8550   11.2490   11.3560 C.3       1 7X11888     0.0000 
     26 C26        15.0160   12.7790   11.2970 C.3       1 7X11888     0.0000 
     27 C27        15.2680   13.2080    9.8540 C.3       1 7X11888     0.0000 
     28 N28        15.3730   14.6760    9.6880 N.4       1 7X11888     0.0000 
     29 C29        16.7360   15.1620    9.9910 C.3       1 7X11888     0.0000 
     30 C30        16.7670   16.7010    9.9310 C.3       1 7X11888     0.0000 
     31 C31        16.2980   17.1820    8.5440 C.3       1 7X11888     0.0000 
     32 C32        14.9810   16.5020    8.1150 C.3       1 7X11888     0.0000 
     33 C33        15.0940   14.9700    8.2790 C.3       1 7X11888     0.0000 
     34 H          10.0831    8.1647   11.2381 H         1 7X11888     0.0000 
     35 H           9.4333    6.4305   11.4851 H         1 7X11888     0.0000 
     36 H           9.0545    4.6563   16.7405 H         1 7X11888     0.0000 
     37 H          10.4591    3.6896   16.2583 H         1 7X11888     0.0000 
     38 H           7.6033    1.3290   13.5632 H         1 7X11888     0.0000 
     39 H           7.8547    1.7718   11.1863 H         1 7X11888     0.0000 
     40 H          14.1590    4.4671   13.0965 H         1 7X11888     0.0000 
     41 H          14.8503    8.8691   11.8887 H         1 7X11888     0.0000 
     42 H          15.5389   10.8193   10.6407 H         1 7X11888     0.0000 
     43 H          15.1070   10.9309   12.3557 H         1 7X11888     0.0000 
     44 H          15.8551   13.0705   11.9144 H         1 7X11888     0.0000 
     45 H          14.1099   13.2444   11.6613 H         1 7X11888     0.0000 
     46 H          14.4480   12.8134    9.2271 H         1 7X11888     0.0000 
     47 H          16.1957   12.7197    9.5045 H         1 7X11888     0.0000 
     48 H          14.6559   15.1678   10.3052 H         1 7X11888     0.0000 
     49 H          17.4526   14.7778    9.2667 H         1 7X11888     0.0000 
     50 H          17.0428   14.8532   10.9891 H         1 7X11888     0.0000 
     51 H          17.7783   17.0446   10.1042 H         1 7X11888     0.0000 
     52 H          16.1066   17.1011   10.6890 H         1 7X11888     0.0000 
     53 H          17.0702   16.9561    7.8085 H         1 7X11888     0.0000 
     54 H          16.1472   18.2612    8.5732 H         1 7X11888     0.0000 
     55 H          14.7815   16.7343    7.0767 H         1 7X11888     0.0000 
     56 H          14.1726   16.8670    8.7356 H         1 7X11888     0.0000 
     57 H          14.1562   14.5277    7.9632 H         1 7X11888     0.0000 
     58 H          15.8957   14.6212    7.6383 H         1 7X11888     0.0000 
     59 H           9.3289    9.6912    9.9850 H         1 7X11888     0.0000 
     60 H           9.1431   10.1761   11.5070 H         1 7X11888     0.0000 
     61 H           9.0512   11.2422   10.3066 H         1 7X11888     0.0000 
@<TRIPOS>BOND
     1    2    1 1    
     2   59    1 1    
     3   60    1 1    
     4   61    1 1    
     5    3    2 1    
     6    4    3 ar   
     7   23    3 ar   
     8    5    4 ar   
     9   34    4 1    
    10    6    5 ar   
    11   21    5 ar   
    12    7    6 1    
    13   18    6 ar   
    14    8    7 1    
    15   35    7 1    
    16    9    8 ar   
    17   16    8 ar   
    18   10    9 1    
    19   13    9 ar   
    20   11   10 1    
    21   12   11 1    
    22   36   11 1    
    23   37   11 1    
    24   13   12 1    
    25   14   13 ar   
    26   15   14 ar   
    27   38   14 1    
    28   16   15 ar   
    29   39   15 1    
    30   17   16 1    
    31   19   18 ar   
    32   20   19 ar   
    33   40   19 1    
    34   21   20 ar   
    35   22   21 ar   
    36   23   22 ar   
    37   41   22 1    
    38   24   23 1    
    39   25   24 1    
    40   26   25 1    
    41   42   25 1    
    42   43   25 1    
    43   27   26 1    
    44   44   26 1    
    45   45   26 1    
    46   28   27 1    
    47   46   27 1    
    48   47   27 1    
    49   29   28 1    
    50   33   28 1    
    51   48   28 1    
    52   30   29 1    
    53   49   29 1    
    54   50   29 1    
    55   31   30 1    
    56   51   30 1    
    57   52   30 1    
    58   32   31 1    
    59   53   31 1    
    60   54   31 1    
    61   33   32 1    
    62   55   32 1    
    63   56   32 1    
    64   57   33 1    
    65   58   33 1    
@<TRIPOS>SUBSTRUCTURE
     1 7X11888     1 GROUP   
@<TRIPOS>SET

