#    Name: 4g6o_E28_1_INTS_M
#    Modification time : Mon Mar 24 21:28:02 2014

@<TRIPOS>MOLECULE
4g6o_E28_1_INTS_M
   72     0     9     0     0
SMALL
NO_CHARGES


@<TRIPOS>ATOM
      1 N          13.8245    4.0875   19.1105 N.am      2 SEC2        0.0000 
      2 N          14.5920    4.0330   17.9830 N.am      8 SEL2        0.0000 
      3 N          13.0570    4.1420   20.2380 N.am      5 SEP2        0.0000 
      4 CA         12.2075    4.6140   15.3300 C.3       3 GLC5        0.0000 
      5 CA         13.3110    5.8110   16.2540 C.3       9 GLL5        0.0000 
      6 CA         11.1040    3.4170   14.4060 C.3       6 GLP5        0.0000 
      7 CA         11.1980   10.8345   21.7545 C.3       3 GLC5        0.0000 
      8 CA         12.7190   10.0150   20.6620 C.3       9 GLL5        0.0000 
      9 CA          9.6770   11.6540   22.8470 C.3       6 GLP5        0.0000 
     10 CA         13.0780   10.9825   22.1360 C.3       3 GLC5        0.0000 
     11 CA         13.4370   11.9500   23.6100 C.3       6 GLP5        0.0000 
     12 CA         12.5265    8.8095   22.2745 C.3       3 GLC5        0.0000 
     13 CA         12.3340    7.6040   23.8870 C.3       6 GLP5        0.0000 
     14 CA         15.7995    9.0175   19.7345 C.3       3 GLC5        0.0000 
     15 CA         13.8320    9.5500   19.7300 C.3       9 GLL5        0.0000 
     16 CA         17.7670    8.4850   19.7390 C.3       6 GLP5        0.0000 
     17 CA         17.3590    2.3260   16.7355 C.3       3 GLC5        0.0000 
     18 CA         16.7030    4.3460   16.9700 C.3       9 GLL5        0.0000 
     19 CA         18.0150    0.3060   16.5010 C.3       6 GLP5        0.0000 
     20 O          17.1705    2.7920   18.8785 O.2       1 ALC1        0.0000 
     21 O          17.3520    3.5710   17.9030 O.2       7 ALL1        0.0000 
     22 O          16.9890    2.0130   19.8540 O.2       4 ALP1        0.0000 
     23 CA         20.7350    3.6540   18.3180 C.3       3 GLC5        0.0000 
     24 CA         18.6740    3.5370   17.6090 C.3       9 GLL5        0.0000 
     25 CA         22.7960    3.7710   19.0270 C.3       6 GLP5        0.0000 
     26 CA         19.0870    1.8225   18.7360 C.3       3 GLC5        0.0000 
     27 CA         19.5000    0.1080   19.8630 C.3       6 GLP5        0.0000 
     28 CA         21.4730    4.1470   17.4550 C.3       3 GLC5        0.0000 
     29 CA         20.1500    4.5230   15.8830 C.3       9 GLL5        0.0000 
     30 O          21.7760    2.3010   16.5075 O.2       1 ALC1        0.0000 
     31 O          21.1400    3.6150   16.0430 O.2       7 ALL1        0.0000 
     32 O          22.4120    0.9870   16.9720 O.2       4 ALP1        0.0000 
     33 N          23.4765    3.2650   14.9340 N.am      2 SEC2        0.0000 
     34 N          22.3100    4.0510   15.4760 N.am      8 SEL2        0.0000 
     35 N          24.6430    2.4790   14.3920 N.am      5 SEP2        0.0000 
     36 CA         19.6440    7.7190   17.2990 C.3       3 GLC5        0.0000 
     37 CA         19.1510    7.5650   15.3700 C.3       9 GLL5        0.0000 
     38 CA         20.1370    7.8730   19.2280 C.3       6 GLP5        0.0000 
     39 CA         20.0520   10.2440   16.1025 C.3       3 GLC5        0.0000 
     40 CA         18.0450   10.4160   16.4350 C.3       9 GLL5        0.0000 
     41 CA         22.0590   10.0720   15.7700 C.3       6 GLP5        0.0000 
     42 CA         16.8700   11.9425   17.4310 C.3       3 GLC5        0.0000 
     43 CA         15.6950   13.4690   18.4270 C.3       6 GLP5        0.0000 
     44 CA         18.6205    9.7110   18.0360 C.3       3 GLC5        0.0000 
     45 CA         19.1960    9.0060   19.6370 C.3       6 GLP5        0.0000 
     46 CA         13.0767    6.8135   20.0037 C.3       3 GLC5        0.0000 
     47 CA         11.8400    8.2770   19.4260 C.3       9 GLL5        0.0000 
     48 CA         14.7250    5.8410   20.8430 C.3       6 GLP5        0.0000 
     49 CA         14.1000    7.4288   20.0907 C.3       3 GLC5        0.0000 
     50 CA         13.1180    8.4830   18.9470 C.3       9 GLL5        0.0000 
     51 CA         13.7964    6.4949   19.3021 C.3       3 GLC5        0.0000 
     52 CA         13.5840    7.7000   17.9040 C.3       9 GLL5        0.0000 
     53 CA         16.2470    3.6623   14.8440 C.3       3 GLC5        0.0000 
     54 CA         15.3330    2.7530   13.1770 C.3       6 GLP5        0.0000 
     55 CA         18.7208    3.2765   14.8190 C.3       3 GLC5        0.0000 
     56 CA         17.6190    4.7970   16.0520 C.3       9 GLL5        0.0000 
     57 CA         19.1890    2.0100   13.3770 C.3       6 GLP5        0.0000 
     58 CA         18.3975    2.1095   16.7703 C.3       3 GLC5        0.0000 
     59 CA         18.8860    4.2890   16.4700 C.3       9 GLL5        0.0000 
     60 CA         19.8045    3.5367   14.4452 C.3       3 GLC5        0.0000 
     61 CA         20.8323    8.6365   15.3780 C.3       3 GLC5        0.0000 
     62 CA         20.0600    6.8370   14.6020 C.3       9 GLL5        0.0000 
     63 CA         19.5017    5.4683   12.8415 C.3       3 GLC5        0.0000 
     64 CA         18.7900    3.8740   11.7190 C.3       6 GLP5        0.0000 
     65 CA         21.0678    8.9677   14.4243 C.3       3 GLC5        0.0000 
     66 CA         20.3670    7.2880   13.3260 C.3       9 GLL5        0.0000 
     67 CA         20.3790    9.5065   14.9990 C.3       3 GLC5        0.0000 
     68 CA         18.8650    9.1690   13.5860 C.3       9 GLL5        0.0000 
     69 CA         18.4977   11.6105   16.4880 C.3       3 GLC5        0.0000 
     70 CA         19.2090   13.3210   16.8670 C.3       6 GLP5        0.0000 
     71 CA         17.5195    8.7282   17.9892 C.3       3 GLC5        0.0000 
     72 CA         17.5280    9.3840   15.7830 C.3       9 GLL5        0.0000 
@<TRIPOS>BOND
@<TRIPOS>SUBSTRUCTURE
     1 ALC1       20 GROUP        1 X    ALC  0     ROOT ALC X 1
     2 SEC2        1 GROUP        1 X    SEC  0     **** SEC X 2
     3 GLC5        4 GROUP        1 X    GLC  0     **** GLC X 6
     4 ALP1       22 GROUP        1 Y    ALP  0     ROOT ALP Y 8
     5 SEP2        3 GROUP        1 Y    SEP  0     **** SEP Y 9
     6 GLP5        6 GROUP        1 Y    GLP  0     **** GLP Y 13
     7 ALL1       21 GROUP        1 Z    ALL  0     ROOT ALL Z 15
     8 SEL2        2 GROUP        1 Z    SEL  0     **** SEL Z 16
     9 GLL5        5 GROUP        1 Z    GLL  0     **** GLL Z 20
@<TRIPOS>SET

