#    Name: 4g6o_E28_1_ligand
#    Modification time : Mon Mar 24 21:28:02 2014

@<TRIPOS>MOLECULE
4g6o_E28_1_ligand
   58    62     1     0     0
SMALL
NO_CHARGES


@<TRIPOS>ATOM
      1 O1         14.5920    4.0330   17.9830 O.2       1 E28401      0.0000 
      2 C16        15.2650    4.6400   17.1460 C.2       1 E28401      0.0000 
      3 N5         14.7420    5.5580   16.3290 N.am      1 E28401      0.0000 
      4 C17        13.3110    5.8110   16.2540 C.3       1 E28401      0.0000 
      5 C18        12.7930    6.6920   17.3600 C.ar      1 E28401      0.0000 
      6 C25        11.5100    6.5030   17.8770 C.ar      1 E28401      0.0000 
      7 C24        11.0170    7.2950   18.9030 C.ar      1 E28401      0.0000 
      8 C23        11.8400    8.2770   19.4260 C.ar      1 E28401      0.0000 
      9 O2         11.5530    9.1820   20.4200 O.3       1 E28401      0.0000 
     10 C22        12.7190   10.0150   20.6620 C.3       1 E28401      0.0000 
     11 C21        13.8320    9.5500   19.7300 C.3       1 E28401      0.0000 
     12 C20        13.1180    8.4830   18.9470 C.ar      1 E28401      0.0000 
     13 C19        13.5840    7.7000   17.9040 C.ar      1 E28401      0.0000 
     14 C14        16.7030    4.3460   16.9700 C.2       1 E28401      0.0000 
     15 C13        17.6190    4.7970   16.0520 C.2       1 E28401      0.0000 
     16 N4         17.3520    3.5710   17.9030 N.pl3     1 E28401      0.0000 
     17 C15        18.6740    3.5370   17.6090 C.2       1 E28401      0.0000 
     18 C12        18.8860    4.2890   16.4700 C.2       1 E28401      0.0000 
     19 C11        20.1500    4.5230   15.8830 C.2       1 E28401      0.0000 
     20 N3         21.1400    3.6150   16.0430 N.pl3     1 E28401      0.0000 
     21 N2         22.3100    4.0510   15.4760 N.2       1 E28401      0.0000 
     22 C10        22.0310    5.2360   14.9450 C.2       1 E28401      0.0000 
     23 C9         20.6900    5.6040   15.1440 C.2       1 E28401      0.0000 
     24 C4         20.0600    6.8370   14.6020 C.ar      1 E28401      0.0000 
     25 C3         19.1510    7.5650   15.3700 C.ar      1 E28401      0.0000 
     26 C5         20.3670    7.2880   13.3260 C.ar      1 E28401      0.0000 
     27 C6         19.7860    8.4390   12.8310 C.ar      1 E28401      0.0000 
     28 C7         18.8650    9.1690   13.5860 C.ar      1 E28401      0.0000 
     29 C8         18.3770   10.3800   12.9160 C.3       1 E28401      0.0000 
     30 N1         19.4330   11.4070   13.1110 N.4       1 E28401      0.0000 
     31 C2         18.5330    8.7130   14.8700 C.ar      1 E28401      0.0000 
     32 C1         17.5280    9.3840   15.7830 C.3       1 E28401      0.0000 
     33 F1         18.0450   10.4160   16.4350 F         1 E28401      0.0000 
     34 F2         17.0160    8.5590   16.6960 F         1 E28401      0.0000 
     35 F3         16.4670    9.8380   15.1410 F         1 E28401      0.0000 
     36 H          15.3397    6.1417   15.7010 H         1 E28401      0.0000 
     37 H          12.7483    4.8525   16.2794 H         1 E28401      0.0000 
     38 H          13.0538    6.2847   15.2816 H         1 E28401      0.0000 
     39 H          10.9136    5.7501   17.4810 H         1 E28401      0.0000 
     40 H          10.0743    7.1567   19.2612 H         1 E28401      0.0000 
     41 H          13.0668    9.9188   21.6865 H         1 E28401      0.0000 
     42 H          12.5084   11.0594   20.4506 H         1 E28401      0.0000 
     43 H          14.6154    9.1316   20.2945 H         1 E28401      0.0000 
     44 H          14.1193   10.3413   19.0985 H         1 E28401      0.0000 
     45 H          14.5317    7.8639   17.5221 H         1 E28401      0.0000 
     46 H          17.4760    5.3274   15.2993 H         1 E28401      0.0000 
     47 H          16.9234    3.1276   18.6440 H         1 E28401      0.0000 
     48 H          19.3569    3.0752   18.0975 H         1 E28401      0.0000 
     49 H          21.0439    2.7557   16.5021 H         1 E28401      0.0000 
     50 H          22.6600    5.8187   14.4616 H         1 E28401      0.0000 
     51 H          18.9295    7.2479   16.3312 H         1 E28401      0.0000 
     52 H          21.0358    6.7564   12.7440 H         1 E28401      0.0000 
     53 H          20.0340    8.7737   11.8805 H         1 E28401      0.0000 
     54 H          17.4536   10.7154   13.3649 H         1 E28401      0.0000 
     55 H          18.2346   10.1980   11.8609 H         1 E28401      0.0000 
     56 H          20.3061   11.1216   12.7158 H         1 E28401      0.0000 
     57 H          19.1882   12.2772   12.6835 H         1 E28401      0.0000 
     58 H          19.5965   11.5922   14.0800 H         1 E28401      0.0000 
@<TRIPOS>BOND
     1    2    1 2    
     2    3    2 am   
     3   14    2 1    
     4    4    3 1    
     5   36    3 1    
     6    5    4 1    
     7   37    4 1    
     8   38    4 1    
     9    6    5 ar   
    10   13    5 ar   
    11    7    6 ar   
    12   39    6 1    
    13    8    7 ar   
    14   40    7 1    
    15    9    8 1    
    16   12    8 ar   
    17   10    9 1    
    18   11   10 1    
    19   41   10 1    
    20   42   10 1    
    21   12   11 1    
    22   43   11 1    
    23   44   11 1    
    24   13   12 ar   
    25   45   13 1    
    26   15   14 2    
    27   16   14 1    
    28   18   15 1    
    29   46   15 1    
    30   17   16 1    
    31   47   16 1    
    32   18   17 2    
    33   48   17 1    
    34   19   18 1    
    35   20   19 1    
    36   23   19 2    
    37   21   20 1    
    38   49   20 1    
    39   22   21 2    
    40   23   22 1    
    41   50   22 1    
    42   24   23 1    
    43   25   24 ar   
    44   26   24 ar   
    45   31   25 ar   
    46   51   25 1    
    47   27   26 ar   
    48   52   26 1    
    49   28   27 ar   
    50   53   27 1    
    51   29   28 1    
    52   31   28 ar   
    53   30   29 1    
    54   54   29 1    
    55   55   29 1    
    56   56   30 1    
    57   57   30 1    
    58   58   30 1    
    59   32   31 1    
    60   33   32 1    
    61   34   32 1    
    62   35   32 1    
@<TRIPOS>SUBSTRUCTURE
     1 E28401      1 GROUP   
@<TRIPOS>SET

