#    Name: 2p20_PRX_1_INTS_M
#    Modification time : Mon Mar 24 18:10:32 2014

@<TRIPOS>MOLECULE
2p20_PRX_1_INTS_M
   66     0    12     0     0
SMALL
NO_CHARGES


@<TRIPOS>ATOM
      1 O          -9.9710   24.9830   26.3890 O.2       1 ALC1        0.0000 
      2 O          -9.6950   26.1210   25.8160 O.2       9 ALL1        0.0000 
      3 O         -10.2470   23.8450   26.9620 O.2       5 ALP1        0.0000 
      4 O          -9.1315   24.5000   25.8600 O.2       1 ALC1        0.0000 
      5 O          -8.5680   22.8790   25.9040 O.2       5 ALP1        0.0000 
      6 CA         -4.0925   26.4510   24.1650 C.3       4 GLC5        0.0000 
      7 CA         -5.5900   27.4840   24.7900 C.3      12 GLL5        0.0000 
      8 CA         -2.5950   25.4180   23.5400 C.3       8 GLP5        0.0000 
      9 CA         -5.1760   28.6570   26.6225 C.3       4 GLC5        0.0000 
     10 CA         -4.7620   29.8300   28.4550 C.3       8 GLP5        0.0000 
     11 NZ         -3.0445   28.0350   26.8130 N.4       3 LYC4        0.0000 
     12 NZ         -2.9280   28.5680   25.4850 N.4      11 LYL4        0.0000 
     13 NZ         -3.4200   27.9690   29.3630 N.4       7 LYP4        0.0000 
     14 N          -1.8805   27.7315   24.9165 N.am      2 SEC2        0.0000 
     15 N          -2.9280   28.5680   25.4850 N.am     10 SEL2        0.0000 
     16 N          -0.8330   26.8950   24.3480 N.am      6 SEP2        0.0000 
     17 N          -1.6385   29.0015   25.4285 N.am      2 SEC2        0.0000 
     18 N          -0.3490   29.4350   25.3720 N.am      6 SEP2        0.0000 
     19 N          -3.0445   28.0350   26.8130 N.am      2 SEC2        0.0000 
     20 N          -3.1610   27.5020   28.1410 N.am      6 SEP2        0.0000 
     21 CA         -6.3155   28.7765   20.1715 C.3       4 GLC5        0.0000 
     22 CA         -4.3400   27.8130   20.4700 C.3      12 GLL5        0.0000 
     23 CA         -8.2910   29.7400   19.8730 C.3       8 GLP5        0.0000 
     24 CA         -3.4675   26.6155   22.0050 C.3       4 GLC5        0.0000 
     25 CA         -5.7680   24.8060   24.9670 C.3       4 GLC5        0.0000 
     26 CA         -7.4540   25.7970   25.0080 C.3      12 GLL5        0.0000 
     27 CA         -4.0820   23.8150   24.9260 C.3       8 GLP5        0.0000 
     28 N          -6.1230   24.2730   26.6700 N.am      2 SEC2        0.0000 
     29 N          -7.2050   25.0450   26.2100 N.am     10 SEL2        0.0000 
     30 N          -5.0410   23.5010   27.1300 N.am      6 SEP2        0.0000 
     31 N          -6.8360   25.4585   27.6430 N.am      2 SEC2        0.0000 
     32 N          -6.4670   25.8720   29.0760 N.am      6 SEP2        0.0000 
     33 O          -7.8865   23.9620   26.0570 O.2       1 ALC1        0.0000 
     34 O          -7.2050   25.0450   26.2100 O.2       9 ALL1        0.0000 
     35 N          -8.3185   27.7660   19.4580 N.am      2 SEC2        0.0000 
     36 N          -8.2100   26.4760   20.3220 N.am     10 SEL2        0.0000 
     37 N          -8.4270   29.0560   18.5940 N.am      6 SEP2        0.0000 
     38 CA        -11.9030   27.1475   21.0040 C.3       4 GLC5        0.0000 
     39 CA        -11.9560   25.1120   21.0480 C.3      12 GLL5        0.0000 
     40 CA        -11.8500   29.1830   20.9600 C.3       8 GLP5        0.0000 
     41 CA        -13.3825   26.0600   20.5990 C.3       4 GLC5        0.0000 
     42 CA        -14.8090   27.0080   20.1500 C.3       8 GLP5        0.0000 
     43 CA        -12.0560   23.7185   22.1470 C.3       4 GLC5        0.0000 
     44 CA        -12.1560   22.3250   23.2460 C.3       8 GLP5        0.0000 
     45 O         -10.6190   25.1350   16.9595 O.2       1 ALC1        0.0000 
     46 O          -9.8460   25.2200   18.1700 O.2       9 ALL1        0.0000 
     47 O         -11.3920   25.0500   15.7490 O.2       5 ALP1        0.0000 
     48 O          -8.4715   25.1385   17.6115 O.2       1 ALC1        0.0000 
     49 O          -7.0970   25.0570   17.0530 O.2       5 ALP1        0.0000 
     50 CA         -8.4072   24.3645   23.3270 C.3       4 GLC5        0.0000 
     51 CA         -8.9230   25.8650   24.6580 C.3      12 GLL5        0.0000 
     52 CA         -8.6260   22.8980   21.8210 C.3       8 GLP5        0.0000 
     53 CA         -1.9467   29.5395   21.5678 C.3       4 GLC5        0.0000 
     54 CA         -4.2220   29.7720   22.0590 C.3      12 GLL5        0.0000 
     55 CA          0.0350   29.6440   21.6940 C.3       8 GLP5        0.0000 
     56 CA         -4.8727   28.5468   18.8850 C.3       4 GLC5        0.0000 
     57 CA         -3.6350   29.0980   20.8240 C.3      12 GLL5        0.0000 
     58 CA         -5.7580   28.6380   17.1230 C.3       8 GLP5        0.0000 
     59 CA         -3.0347   27.4977   19.3100 C.3       4 GLC5        0.0000 
     60 CA         -2.0820   26.5400   17.9730 C.3       8 GLP5        0.0000 
     61 CA         -8.9972   27.8952   20.4458 C.3       4 GLC5        0.0000 
     62 CA         -9.4660   25.9740   20.3700 C.3      12 GLL5        0.0000 
     63 CA         -8.6195   24.2725   19.3130 C.3       4 GLC5        0.0000 
     64 CA         -7.3640   22.8710   18.7260 C.3       8 GLP5        0.0000 
     65 CA        -10.9219   27.4476   20.5921 C.3       4 GLC5        0.0000 
     66 CA        -10.2840   25.3740   19.4300 C.3      12 GLL5        0.0000 
@<TRIPOS>BOND
@<TRIPOS>SUBSTRUCTURE
     1 ALC1        1 GROUP        1 X    ALC  0     ROOT ALC X 1
     2 SEC2       14 GROUP        1 X    SEC  0     **** SEC X 2
     3 LYC4       11 GROUP        1 X    LYC  0     **** LYC X 4
     4 GLC5        6 GROUP        1 X    GLC  0     **** GLC X 6
     5 ALP1        3 GROUP        1 Y    ALP  0     ROOT ALP Y 8
     6 SEP2       16 GROUP        1 Y    SEP  0     **** SEP Y 9
     7 LYP4       13 GROUP        1 Y    LYP  0     **** LYP Y 11
     8 GLP5        8 GROUP        1 Y    GLP  0     **** GLP Y 13
     9 ALL1        2 GROUP        1 Z    ALL  0     ROOT ALL Z 15
    10 SEL2       15 GROUP        1 Z    SEL  0     **** SEL Z 16
    11 LYL4       12 GROUP        1 Z    LYL  0     **** LYL Z 18
    12 GLL5        7 GROUP        1 Z    GLL  0     **** GLL Z 20
@<TRIPOS>SET

