#    Name: 2p20_PRX_1_ligand
#    Modification time : Mon Mar 24 18:10:32 2014

@<TRIPOS>MOLECULE
2p20_PRX_1_ligand
   45    47     1     0     0
SMALL
NO_CHARGES


@<TRIPOS>ATOM
      1 O2'        -9.6950   26.1210   25.8160 O.3       1 PRX999      0.0000 
      2 C2'        -8.9230   25.8650   24.6580 C.3       1 PRX999      0.0000 
      3 C1'        -9.0030   27.1080   23.7900 C.3       1 PRX999      0.0000 
      4 O4'        -7.8460   27.9100   24.0690 O.3       1 PRX999      0.0000 
      5 C4'        -7.0550   27.2600   25.0710 C.3       1 PRX999      0.0000 
      6 C5'        -5.5900   27.4840   24.7900 C.3       1 PRX999      0.0000 
      7 O5'        -5.3560   28.8720   25.0120 O.3       1 PRX999      0.0000 
      8 P          -3.8990   29.4560   24.7230 P.3       1 PRX999      0.0000 
      9 O1P        -2.9280   28.5680   25.4850 O.co2     1 PRX999      0.0000 
     10 O2P        -3.8650   30.9460   24.8930 O.co2     1 PRX999      0.0000 
     11 O3P        -3.7180   29.0410   23.1800 O.3       1 PRX999      0.0000 
     12 C1P        -4.2220   29.7720   22.0590 C.3       1 PRX999      0.0000 
     13 C2P        -3.6350   29.0980   20.8240 C.3       1 PRX999      0.0000 
     14 C3P        -4.3400   27.8130   20.4700 C.3       1 PRX999      0.0000 
     15 C3'        -7.4540   25.7970   25.0080 C.3       1 PRX999      0.0000 
     16 O3'        -7.2050   25.0450   26.2100 O.3       1 PRX999      0.0000 
     17 N9         -8.9590   26.7230   22.3640 N.pl3     1 PRX999      0.0000 
     18 C8         -7.9040   26.9310   21.5550 C.2       1 PRX999      0.0000 
     19 N7         -8.2100   26.4760   20.3220 N.2       1 PRX999      0.0000 
     20 C5         -9.4660   25.9740   20.3700 C.ar      1 PRX999      0.0000 
     21 C4         -9.9410   26.1270   21.6670 C.ar      1 PRX999      0.0000 
     22 N3        -11.1960   25.6880   21.9870 N.ar      1 PRX999      0.0000 
     23 C2        -11.9560   25.1120   21.0480 C.ar      1 PRX999      0.0000 
     24 N1        -11.5190   24.9520   19.7840 N.ar      1 PRX999      0.0000 
     25 C6        -10.2840   25.3740   19.4300 C.ar      1 PRX999      0.0000 
     26 N6         -9.8460   25.2200   18.1700 N.pl3     1 PRX999      0.0000 
     27 H          -9.2051   25.0410   24.1073 H         1 PRX999      0.0000 
     28 H          -9.8991   27.6289   24.0089 H         1 PRX999      0.0000 
     29 H          -7.3035   27.6381   26.0442 H         1 PRX999      0.0000 
     30 H          -5.3885   27.1984   23.7647 H         1 PRX999      0.0000 
     31 H          -5.0115   26.8632   25.4633 H         1 PRX999      0.0000 
     32 H          -3.8980   30.8029   22.0674 H         1 PRX999      0.0000 
     33 H          -5.2993   29.7209   21.9918 H         1 PRX999      0.0000 
     34 H          -2.5695   28.8940   21.0040 H         1 PRX999      0.0000 
     35 H          -3.6968   29.7956   19.9762 H         1 PRX999      0.0000 
     36 H          -6.9493   25.3680   24.1418 H         1 PRX999      0.0000 
     37 H          -7.0649   27.3387   21.8124 H         1 PRX999      0.0000 
     38 H         -12.9234   24.7731   21.3007 H         1 PRX999      0.0000 
     39 H          -8.8552   25.1505   18.0540 H         1 PRX999      0.0000 
     40 H         -10.5498   25.1886   17.4602 H         1 PRX999      0.0000 
     41 H          -3.9423   27.3822   19.6599 H         1 PRX999      0.0000 
     42 H          -4.2890   27.1448   21.2122 H         1 PRX999      0.0000 
     43 H          -5.3096   27.9625   20.2763 H         1 PRX999      0.0000 
     44 H          -9.4910   25.3631   26.4356 H         1 PRX999      0.0000 
     45 H          -7.3114   24.0873   25.9427 H         1 PRX999      0.0000 
@<TRIPOS>BOND
     1    2    1 1    
     2   44    1 1    
     3    3    2 1    
     4   15    2 1    
     5   27    2 1    
     6    4    3 1    
     7   17    3 1    
     8   28    3 1    
     9    5    4 1    
    10    6    5 1    
    11   15    5 1    
    12   29    5 1    
    13    7    6 1    
    14   30    6 1    
    15   31    6 1    
    16    8    7 1    
    17    9    8 ar   
    18   10    8 ar   
    19   11    8 1    
    20   12   11 1    
    21   13   12 1    
    22   32   12 1    
    23   33   12 1    
    24   14   13 1    
    25   34   13 1    
    26   35   13 1    
    27   41   14 1    
    28   42   14 1    
    29   43   14 1    
    30   16   15 1    
    31   36   15 1    
    32   45   16 1    
    33   18   17 1    
    34   21   17 1    
    35   19   18 2    
    36   37   18 1    
    37   20   19 1    
    38   21   20 ar   
    39   25   20 ar   
    40   22   21 ar   
    41   23   22 ar   
    42   24   23 ar   
    43   38   23 1    
    44   25   24 ar   
    45   26   25 1    
    46   39   26 1    
    47   40   26 1    
@<TRIPOS>SUBSTRUCTURE
     1 PRX999      1 GROUP   
@<TRIPOS>SET

