#    Name: 1jf2_CZH_1_INTS_M
#    Modification time : Tue Mar 25 08:53:52 2014

@<TRIPOS>MOLECULE
1jf2_CZH_1_INTS_M
   77     0     9     0     0
SMALL
NO_CHARGES


@<TRIPOS>ATOM
      1 N          52.2430   28.3915  -62.1965 N.am      2 SEC2        0.0000 
      2 N          52.9800   27.8310  -61.2300 N.am      8 SEL2        0.0000 
      3 N          51.5060   28.9520  -63.1630 N.am      5 SEP2        0.0000 
      4 CA         54.5695   27.6900  -62.3945 C.3       3 GLC5        0.0000 
      5 CA         53.8420   28.8590  -60.7550 C.3       9 GLL5        0.0000 
      6 CA         55.2970   26.5210  -64.0340 C.3       6 GLP5        0.0000 
      7 CA         52.1760   29.7110  -61.2290 C.3       3 GLC5        0.0000 
      8 CA         50.5100   30.5630  -61.7030 C.3       6 GLP5        0.0000 
      9 CA         55.3765   28.5420  -63.2275 C.3       3 GLC5        0.0000 
     10 CA         54.5670   29.5840  -61.9580 C.3       9 GLL5        0.0000 
     11 CA         56.1860   27.5000  -64.4970 C.3       6 GLP5        0.0000 
     12 CA         52.6975   29.8595  -62.4710 C.3       3 GLC5        0.0000 
     13 CA         50.8280   30.1350  -62.9840 C.3       6 GLP5        0.0000 
     14 CA         58.2095   29.8850  -62.9620 C.3       3 GLC5        0.0000 
     15 CA         56.8800   30.5630  -61.4060 C.3       9 GLL5        0.0000 
     16 CA         59.5390   29.2070  -64.5180 C.3       6 GLP5        0.0000 
     17 N          56.4035   27.7885  -57.8720 N.am      2 SEC2        0.0000 
     18 N          55.7700   28.5090  -59.1900 N.am      8 SEL2        0.0000 
     19 N          57.0370   27.0680  -56.5540 N.am      5 SEP2        0.0000 
     20 N          56.7325   19.7900  -55.5015 N.am      2 SEC2        0.0000 
     21 N          56.1440   19.5450  -56.7730 N.am      8 SEL2        0.0000 
     22 N          57.3210   20.0350  -54.2300 N.am      5 SEP2        0.0000 
     23 CA         49.9170   23.8545  -60.8925 C.3       3 GLC5        0.0000 
     24 CA         51.5570   25.1120  -61.7470 C.3       9 GLL5        0.0000 
     25 CA         48.2770   22.5970  -60.0380 C.3       6 GLP5        0.0000 
     26 CA         53.6600   25.3720  -62.4230 C.3       3 GLC5        0.0000 
     27 CA         55.7630   25.6320  -63.0990 C.3       6 GLP5        0.0000 
     28 CA         54.2475   23.2895  -66.7135 C.3       3 GLC5        0.0000 
     29 CA         52.4370   23.4810  -65.7450 C.3       9 GLL5        0.0000 
     30 CA         56.0580   23.0980  -67.6820 C.3       6 GLP5        0.0000 
     31 N          52.2125   29.3650  -61.6390 N.am      2 SEC2        0.0000 
     32 N          52.9190   29.7780  -60.1150 N.am      8 SEL2        0.0000 
     33 O          52.7735   29.5575  -57.8095 O.2       1 ALC1        0.0000 
     34 O          52.4240   29.0410  -59.0280 O.2       7 ALL1        0.0000 
     35 O          53.1230   30.0740  -56.5910 O.2       4 ALP1        0.0000 
     36 CA         54.8141   31.6208  -63.4189 C.3       3 GLC5        0.0000 
     37 CA         54.7000   32.1400  -65.3780 C.3       6 GLP5        0.0000 
     38 CA         57.6925   33.2758  -62.1015 C.3       3 GLC5        0.0000 
     39 CA         55.6720   33.1400  -60.7570 C.3       9 GLL5        0.0000 
     40 CA         59.0000   33.5040  -63.4990 C.3       6 GLP5        0.0000 
     41 CA         56.4730   33.9772  -59.0400 C.3       3 GLC5        0.0000 
     42 CA         57.0980   32.9550  -60.6510 C.3       9 GLL5        0.0000 
     43 CA         56.5610   34.9070  -57.3760 C.3       6 GLP5        0.0000 
     44 CA         58.3972   29.7615  -60.6028 C.3       3 GLC5        0.0000 
     45 CA         57.7130   31.6690  -60.9730 C.3       9 GLL5        0.0000 
     46 CA         59.4980   28.4070  -60.0160 C.3       6 GLP5        0.0000 
     47 CA         58.1482   32.3100  -62.3443 C.3       3 GLC5        0.0000 
     48 CA         53.1134   22.9369  -58.2946 C.3       3 GLC5        0.0000 
     49 CA         54.5190   24.3830  -59.3350 C.3       9 GLL5        0.0000 
     50 CA         51.5720   23.0620  -57.4570 C.3       6 GLP5        0.0000 
     51 CA         53.6205   20.0388  -60.1513 C.3       3 GLC5        0.0000 
     52 CA         54.5680   21.8620  -59.2520 C.3       9 GLL5        0.0000 
     53 CA         52.4670   18.8270  -61.3810 C.3       6 GLP5        0.0000 
     54 CA         53.9870   20.4690  -57.0200 C.3       3 GLC5        0.0000 
     55 CA         54.9800   20.6390  -58.5910 C.3       9 GLL5        0.0000 
     56 CA         52.5950   20.2720  -56.0550 C.3       6 GLP5        0.0000 
     57 CA         54.3392   22.0898  -56.2495 C.3       3 GLC5        0.0000 
     58 CA         56.1730   21.9550  -56.8260 C.3       9 GLL5        0.0000 
     59 CA         52.7050   21.6230  -55.3530 C.3       6 GLP5        0.0000 
     60 CA         49.8865   24.0412  -63.8653 C.3       3 GLC5        0.0000 
     61 CA         51.8610   24.5460  -63.0930 C.3       9 GLL5        0.0000 
     62 CA         47.9690   23.1110  -64.0530 C.3       6 GLP5        0.0000 
     63 CA         50.4857   25.9905  -65.5570 C.3       3 GLC5        0.0000 
     64 CA         51.7470   25.3970  -64.2620 C.3       9 GLL5        0.0000 
     65 CA         49.0800   26.8520  -66.1880 C.3       6 GLP5        0.0000 
     66 CA         50.3753   23.2125  -65.4267 C.3       3 GLC5        0.0000 
     67 CA         52.0360   24.8610  -65.5900 C.3       9 GLL5        0.0000 
     68 CA         48.5140   22.2540  -65.1860 C.3       6 GLP5        0.0000 
     69 CA         52.3902   24.5290  -67.5207 C.3       3 GLC5        0.0000 
     70 CA         52.5440   24.8870  -69.3740 C.3       6 GLP5        0.0000 
     71 CA         53.3143   21.5733  -65.8443 C.3       3 GLC5        0.0000 
     72 CA         54.1340   20.0930  -66.5300 C.3       6 GLP5        0.0000 
     73 CA         51.4217   21.4038  -63.1298 C.3       3 GLC5        0.0000 
     74 CA         52.5520   22.6260  -64.5720 C.3       9 GLL5        0.0000 
     75 CA         50.4340   19.9200  -62.3470 C.3       6 GLP5        0.0000 
     76 CA         50.4618   22.5708  -64.5493 C.3       3 GLC5        0.0000 
     77 CA         52.2670   23.1490  -63.2530 C.3       9 GLL5        0.0000 
@<TRIPOS>BOND
@<TRIPOS>SUBSTRUCTURE
     1 ALC1       33 GROUP        1 X    ALC  0     ROOT ALC X 1
     2 SEC2        1 GROUP        1 X    SEC  0     **** SEC X 2
     3 GLC5        4 GROUP        1 X    GLC  0     **** GLC X 6
     4 ALP1       35 GROUP        1 Y    ALP  0     ROOT ALP Y 8
     5 SEP2        3 GROUP        1 Y    SEP  0     **** SEP Y 9
     6 GLP5        6 GROUP        1 Y    GLP  0     **** GLP Y 13
     7 ALL1       34 GROUP        1 Z    ALL  0     ROOT ALL Z 15
     8 SEL2        2 GROUP        1 Z    SEL  0     **** SEL Z 16
     9 GLL5        5 GROUP        1 Z    GLL  0     **** GLL Z 20
@<TRIPOS>SET

