#    Name: 1jf2_CZH_1_ligand
#    Modification time : Tue Mar 25 08:53:52 2014

@<TRIPOS>MOLECULE
1jf2_CZH_1_ligand
   55    59     1     0     0
SMALL
NO_CHARGES


@<TRIPOS>ATOM
      1 N1         52.9800   27.8310  -61.2300 N.2       1 CZH196      0.0000 
      2 C2         53.8420   28.8590  -60.7550 C.3       1 CZH196      0.0000 
      3 C3         54.8380   28.0340  -59.8260 C.2       1 CZH196      0.0000 
      4 N4         54.4710   26.7760  -59.8640 N.am      1 CZH196      0.0000 
      5 C5         55.1000   25.6250  -59.1450 C.2       1 CZH196      0.0000 
      6 C6         54.5190   24.3830  -59.3350 C.2       1 CZH196      0.0000 
      7 N7         53.3140   24.2870  -60.2380 N.2       1 CZH196      0.0000 
      8 C8         52.7700   25.3500  -60.8800 C.2       1 CZH196      0.0000 
      9 C9         53.3870   26.7030  -60.6860 C.2       1 CZH196      0.0000 
     10 C10        54.5670   29.5840  -61.9580 C.3       1 CZH196      0.0000 
     11 C11        55.4480   30.7380  -61.5130 C.ar      1 CZH196      0.0000 
     12 C12        54.8490   32.0420  -61.1840 C.ar      1 CZH196      0.0000 
     13 C13        55.6720   33.1400  -60.7570 C.ar      1 CZH196      0.0000 
     14 C14        57.0980   32.9550  -60.6510 C.ar      1 CZH196      0.0000 
     15 C15        57.7130   31.6690  -60.9730 C.ar      1 CZH196      0.0000 
     16 C16        56.8800   30.5630  -61.4060 C.ar      1 CZH196      0.0000 
     17 O17        57.8370   33.9980  -60.2530 O.3       1 CZH196      0.0000 
     18 O18        55.7700   28.5090  -59.1900 O.2       1 CZH196      0.0000 
     19 C19        54.9640   23.1400  -58.6900 C.ar      1 CZH196      0.0000 
     20 C20        54.5680   21.8620  -59.2520 C.ar      1 CZH196      0.0000 
     21 C21        54.9800   20.6390  -58.5910 C.ar      1 CZH196      0.0000 
     22 C22        55.7780   20.6930  -57.3790 C.ar      1 CZH196      0.0000 
     23 C23        56.1730   21.9550  -56.8260 C.ar      1 CZH196      0.0000 
     24 C24        55.7740   23.1580  -57.4660 C.ar      1 CZH196      0.0000 
     25 O25        56.1440   19.5450  -56.7730 O.3       1 CZH196      0.0000 
     26 C26        51.5570   25.1120  -61.7470 C.3       1 CZH196      0.0000 
     27 C27        51.8610   24.5460  -63.0930 C.ar      1 CZH196      0.0000 
     28 C28        51.7470   25.3970  -64.2620 C.ar      1 CZH196      0.0000 
     29 C29        52.0360   24.8610  -65.5900 C.ar      1 CZH196      0.0000 
     30 C30        52.4370   23.4810  -65.7450 C.ar      1 CZH196      0.0000 
     31 C31        52.5520   22.6260  -64.5720 C.ar      1 CZH196      0.0000 
     32 C32        52.2670   23.1490  -63.2530 C.ar      1 CZH196      0.0000 
     33 O33        52.9190   29.7780  -60.1150 O.3       1 CZH196      0.0000 
     34 O34        52.4240   29.0410  -59.0280 O.3       1 CZH196      0.0000 
     35 H          55.8894   25.7975  -58.5752 H         1 CZH196      0.0000 
     36 H          53.7935   29.9441  -62.6426 H         1 CZH196      0.0000 
     37 H          55.1662   28.8349  -62.4838 H         1 CZH196      0.0000 
     38 H          53.8461   32.1510  -61.2642 H         1 CZH196      0.0000 
     39 H          55.2587   34.0310  -60.5335 H         1 CZH196      0.0000 
     40 H          58.7075   31.5562  -60.8935 H         1 CZH196      0.0000 
     41 H          57.3001   29.6748  -61.6315 H         1 CZH196      0.0000 
     42 H          54.0156   21.8257  -60.0882 H         1 CZH196      0.0000 
     43 H          54.7108   19.7437  -58.9751 H         1 CZH196      0.0000 
     44 H          56.7342   21.9821  -55.9822 H         1 CZH196      0.0000 
     45 H          56.0456   24.0644  -57.0831 H         1 CZH196      0.0000 
     46 H          51.0104   26.0715  -61.8651 H         1 CZH196      0.0000 
     47 H          50.8631   24.4320  -61.2090 H         1 CZH196      0.0000 
     48 H          51.4684   26.3601  -64.1629 H         1 CZH196      0.0000 
     49 H          51.9535   25.4610  -66.3966 H         1 CZH196      0.0000 
     50 H          52.6370   23.1081  -66.6581 H         1 CZH196      0.0000 
     51 H          52.8330   21.6612  -64.6837 H         1 CZH196      0.0000 
     52 H          52.3458   22.5584  -62.4421 H         1 CZH196      0.0000 
     53 H          58.7735   33.6501  -60.2100 H         1 CZH196      0.0000 
     54 H          55.2304   19.2160  -57.0121 H         1 CZH196      0.0000 
     55 H          52.7191   29.5463  -58.2171 H         1 CZH196      0.0000 
@<TRIPOS>BOND
     1    2    1 1    
     2    9    1 2    
     3    3    2 1    
     4   10    2 1    
     5   33    2 1    
     6    4    3 am   
     7   18    3 2    
     8    5    4 1    
     9    9    4 1    
    10    6    5 2    
    11   35    5 1    
    12    7    6 1    
    13   19    6 1    
    14    8    7 2    
    15    9    8 1    
    16   26    8 1    
    17   11   10 1    
    18   36   10 1    
    19   37   10 1    
    20   12   11 ar   
    21   16   11 ar   
    22   13   12 ar   
    23   38   12 1    
    24   14   13 ar   
    25   39   13 1    
    26   15   14 ar   
    27   17   14 1    
    28   16   15 ar   
    29   40   15 1    
    30   41   16 1    
    31   53   17 1    
    32   20   19 ar   
    33   24   19 ar   
    34   21   20 ar   
    35   42   20 1    
    36   22   21 ar   
    37   43   21 1    
    38   23   22 ar   
    39   25   22 1    
    40   24   23 ar   
    41   44   23 1    
    42   45   24 1    
    43   54   25 1    
    44   27   26 1    
    45   46   26 1    
    46   47   26 1    
    47   28   27 ar   
    48   32   27 ar   
    49   29   28 ar   
    50   48   28 1    
    51   30   29 ar   
    52   49   29 1    
    53   31   30 ar   
    54   50   30 1    
    55   32   31 ar   
    56   51   31 1    
    57   52   32 1    
    58   34   33 1    
    59   55   34 1    
@<TRIPOS>SUBSTRUCTURE
     1 CZH196      1 GROUP   
@<TRIPOS>SET

