#    Name: 3aty_FMN_1_INTS_M
#    Modification time : Mon Mar 24 18:13:05 2014

@<TRIPOS>MOLECULE
3aty_FMN_1_INTS_M
   79     0     9     0     0
SMALL
NO_CHARGES


@<TRIPOS>ATOM
      1 N          18.1875   -2.2540   -1.9060 N.am      2 SEC2        0.0000 
      2 N          18.1270   -3.5870   -2.4130 N.am      8 SEL2        0.0000 
      3 N          18.2480   -0.9210   -1.3990 N.am      5 SEP2        0.0000 
      4 N          17.8285   -4.5015   -1.3865 N.am      2 SEC2        0.0000 
      5 N          17.5300   -5.4160   -0.3600 N.am      5 SEP2        0.0000 
      6 O          16.7600   -1.6270   -3.5370 O.2       1 ALC1        0.0000 
      7 O          16.5230   -2.9400   -3.9110 O.2       7 ALL1        0.0000 
      8 O          16.9970   -0.3140   -3.1630 O.2       4 ALP1        0.0000 
      9 N          14.3790   -2.2205   -6.5830 N.am      2 SEC2        0.0000 
     10 N          14.9050   -2.2550   -5.3960 N.am      8 SEL2        0.0000 
     11 N          13.8530   -2.1860   -7.7700 N.am      5 SEP2        0.0000 
     12 N          14.5895   -0.7325   -5.1085 N.am      2 SEC2        0.0000 
     13 N          14.2740    0.7900   -4.8210 N.am      5 SEP2        0.0000 
     14 N          12.7985   -4.0960   -5.7630 N.am      2 SEC2        0.0000 
     15 N          13.8420   -4.8780   -5.5430 N.am      8 SEL2        0.0000 
     16 N          11.7550   -3.3140   -5.9830 N.am      5 SEP2        0.0000 
     17 CA         13.0405   -4.5710   -6.8725 C.3       3 GLC5        0.0000 
     18 CA         13.3500   -6.1850   -5.5290 C.3       9 GLL5        0.0000 
     19 CA         12.7310   -2.9570   -8.2160 C.3       6 GLP5        0.0000 
     20 CA         11.8690   -4.6290   -6.8055 C.3       3 GLC5        0.0000 
     21 CA         12.2110   -6.5590   -6.3240 C.3       9 GLL5        0.0000 
     22 CA         11.5270   -2.6990   -7.2870 C.3       6 GLP5        0.0000 
     23 CA          9.1105   -8.5295   -5.6390 C.3       3 GLC5        0.0000 
     24 CA         10.4640   -8.1600   -7.1800 C.3       9 GLL5        0.0000 
     25 CA          7.7570   -8.8990   -4.0980 C.3       6 GLP5        0.0000 
     26 CA          9.6445   -9.7460   -7.3840 C.3       3 GLC5        0.0000 
     27 CA          8.8250  -11.3320   -7.5880 C.3       6 GLP5        0.0000 
     28 CA         10.9555   -8.0930   -8.7935 C.3       3 GLC5        0.0000 
     29 CA         11.4470   -8.0260  -10.4070 C.3       6 GLP5        0.0000 
     30 CA          9.7680   -9.6025   -4.7475 C.3       3 GLC5        0.0000 
     31 CA         11.7790  -10.3060   -5.3970 C.3       9 GLL5        0.0000 
     32 CA         10.3265  -11.2645   -5.9575 C.3       3 GLC5        0.0000 
     33 CA          8.8740  -12.2230   -6.5180 C.3       6 GLP5        0.0000 
     34 CA         16.4465   -9.5600   -3.7975 C.3       3 GLC5        0.0000 
     35 CA         15.7160   -7.8060   -2.9920 C.3       9 GLL5        0.0000 
     36 CA         17.1770  -11.3140   -4.6030 C.3       6 GLP5        0.0000 
     37 CA         12.8825   -7.4045   -2.0750 C.3       3 GLC5        0.0000 
     38 CA         14.8440   -7.7930   -1.7100 C.3       9 GLL5        0.0000 
     39 CA         10.9210   -7.0160   -2.4400 C.3       6 GLP5        0.0000 
     40 N          16.0780   -6.5275    0.3055 N.am      2 SEC2        0.0000 
     41 N          15.0090   -6.5390   -1.0030 N.am      8 SEL2        0.0000 
     42 N          17.1470   -6.5160    1.6140 N.am      5 SEP2        0.0000 
     43 N          16.2695   -5.9775   -0.6815 N.am      2 SEC2        0.0000 
     44 O          14.2435   -5.4095   -1.5655 O.2       1 ALC1        0.0000 
     45 O          15.0090   -6.5390   -1.0030 O.2       7 ALL1        0.0000 
     46 O          13.4780   -4.2800   -2.1280 O.2       4 ALP1        0.0000 
     47 N          16.8460   -7.6255    0.6770 N.am      2 SEC2        0.0000 
     48 N          16.5450   -8.7350   -0.2600 N.am      8 SEL2        0.0000 
     49 N          17.0375   -7.0755   -0.3100 N.am      2 SEC2        0.0000 
     50 O          16.8895   -9.2350    0.8715 O.2       1 ALC1        0.0000 
     51 O          16.5450   -8.7350   -0.2600 O.2       7 ALL1        0.0000 
     52 O          17.2340   -9.7350    2.0030 O.2       4 ALP1        0.0000 
     53 CA         16.0890  -10.8180   -2.9635 C.3       3 GLC5        0.0000 
     54 CA         15.0010  -10.3220   -1.3240 C.3       9 GLL5        0.0000 
     55 CA         16.6600  -11.8300   -1.8360 C.3       3 GLC5        0.0000 
     56 CA         15.2930  -11.4360   -0.3630 C.3       9 GLL5        0.0000 
     57 CA         18.0270  -12.2240   -3.3090 C.3       6 GLP5        0.0000 
     58 CA         16.4720  -12.7385   -0.1065 C.3       3 GLC5        0.0000 
     59 CA         17.6510  -14.0410    0.1500 C.3       6 GLP5        0.0000 
     60 N          14.8620  -10.3145    1.9075 N.am      2 SEC2        0.0000 
     61 N          14.4590  -11.2810    0.8030 N.am      8 SEL2        0.0000 
     62 N          15.2650   -9.3480    3.0120 N.am      5 SEP2        0.0000 
     63 N          14.4820  -14.3205    2.0360 N.am      2 SEC2        0.0000 
     64 N          13.6810  -13.7170    1.0670 N.am      8 SEL2        0.0000 
     65 N          15.2830  -14.9240    3.0050 N.am      5 SEP2        0.0000 
     66 N          11.7910  -10.6055    2.1850 N.am      2 SEC2        0.0000 
     67 N          12.5600  -11.8120    2.3190 N.am      8 SEL2        0.0000 
     68 N          11.0220   -9.3990    2.0510 N.am      5 SEP2        0.0000 
     69 N          10.9245  -11.4865   -0.2240 N.am      2 SEC2        0.0000 
     70 N          12.1960  -12.0960   -0.1800 N.am      8 SEL2        0.0000 
     71 N           9.6530  -10.8770   -0.2680 N.am      5 SEP2        0.0000 
     72 CA         12.0233   -5.1535   -4.8138 C.3       3 GLC5        0.0000 
     73 CA         11.2660   -3.9350   -3.7010 C.3       6 GLP5        0.0000 
     74 CA         11.4467   -7.6905   -4.1720 C.3       3 GLC5        0.0000 
     75 CA         11.6590   -7.8580   -6.3290 C.3       9 GLL5        0.0000 
     76 CA         12.2990   -7.4428   -3.5673 C.3       3 GLC5        0.0000 
     77 CA         13.3940   -8.5430   -4.6970 C.3       9 GLL5        0.0000 
     78 CA         14.0660   -7.1508    0.3355 C.3       3 GLC5        0.0000 
     79 CA         13.1260   -5.9600    1.8870 C.3       6 GLP5        0.0000 
@<TRIPOS>BOND
@<TRIPOS>SUBSTRUCTURE
     1 ALC1        6 GROUP        1 X    ALC  0     ROOT ALC X 1
     2 SEC2        1 GROUP        1 X    SEC  0     **** SEC X 2
     3 GLC5       17 GROUP        1 X    GLC  0     **** GLC X 6
     4 ALP1        8 GROUP        1 Y    ALP  0     ROOT ALP Y 8
     5 SEP2        3 GROUP        1 Y    SEP  0     **** SEP Y 9
     6 GLP5       19 GROUP        1 Y    GLP  0     **** GLP Y 13
     7 ALL1        7 GROUP        1 Z    ALL  0     ROOT ALL Z 15
     8 SEL2        2 GROUP        1 Z    SEL  0     **** SEL Z 16
     9 GLL5       18 GROUP        1 Z    GLL  0     **** GLL Z 20
@<TRIPOS>SET

