#    Name: 3aty_FMN_1_ligand
#    Modification time : Mon Mar 24 18:13:05 2014

@<TRIPOS>MOLECULE
3aty_FMN_1_ligand
   50    52     1     0     0
SMALL
NO_CHARGES


@<TRIPOS>ATOM
      1 N1         16.6680   -5.2040   -3.1200 N.2       1 FMN500      0.0000 
      2 C2         17.1480   -3.9180   -3.1160 C.2       1 FMN500      0.0000 
      3 O2         18.1270   -3.5870   -2.4130 O.2       1 FMN500      0.0000 
      4 N3         16.5230   -2.9400   -3.9110 N.am      1 FMN500      0.0000 
      5 C4         15.4150   -3.2240   -4.7370 C.2       1 FMN500      0.0000 
      6 O4         14.9050   -2.2550   -5.3960 O.2       1 FMN500      0.0000 
      7 C4A        14.9090   -4.5460   -4.7680 C.2       1 FMN500      0.0000 
      8 N5         13.8420   -4.8780   -5.5430 N.2       1 FMN500      0.0000 
      9 C5A        13.3500   -6.1850   -5.5290 C.ar      1 FMN500      0.0000 
     10 C6         12.2110   -6.5590   -6.3240 C.ar      1 FMN500      0.0000 
     11 C7         11.6590   -7.8580   -6.3290 C.ar      1 FMN500      0.0000 
     12 C7M        10.4640   -8.1600   -7.1800 C.3       1 FMN500      0.0000 
     13 C8         12.2860   -8.8720   -5.4790 C.ar      1 FMN500      0.0000 
     14 C8M        11.7790  -10.3060   -5.3970 C.3       1 FMN500      0.0000 
     15 C9         13.3940   -8.5430   -4.6970 C.ar      1 FMN500      0.0000 
     16 C9A        13.9600   -7.1960   -4.6920 C.ar      1 FMN500      0.0000 
     17 N10        15.0900   -6.8210   -3.8890 N.pl3     1 FMN500      0.0000 
     18 C10        15.6000   -5.5010   -3.9040 C.2       1 FMN500      0.0000 
     19 C1'        15.7160   -7.8060   -2.9920 C.3       1 FMN500      0.0000 
     20 C2'        14.8440   -7.7930   -1.7100 C.3       1 FMN500      0.0000 
     21 O2'        15.0090   -6.5390   -1.0030 O.3       1 FMN500      0.0000 
     22 C3'        15.1680   -8.8900   -0.7220 C.3       1 FMN500      0.0000 
     23 O3'        16.5450   -8.7350   -0.2600 O.3       1 FMN500      0.0000 
     24 C4'        15.0010  -10.3220   -1.3240 C.3       1 FMN500      0.0000 
     25 O4'        13.6150  -10.4240   -1.7800 O.3       1 FMN500      0.0000 
     26 C5'        15.2930  -11.4360   -0.3630 C.3       1 FMN500      0.0000 
     27 O5'        14.4590  -11.2810    0.8030 O.3       1 FMN500      0.0000 
     28 P          13.1320  -12.3090    1.0200 P.3       1 FMN500      0.0000 
     29 O1P        13.6810  -13.7170    1.0670 O.co2     1 FMN500      0.0000 
     30 O2P        12.5600  -11.8120    2.3190 O.co2     1 FMN500      0.0000 
     31 O3P        12.1960  -12.0960   -0.1800 O.co2     1 FMN500      0.0000 
     32 H          16.8918   -1.9665   -3.8902 H         1 FMN500      0.0000 
     33 H          11.7789   -5.8249   -6.9236 H         1 FMN500      0.0000 
     34 H          13.8445   -9.2484   -4.0983 H         1 FMN500      0.0000 
     35 H          16.7100   -7.5165   -2.7247 H         1 FMN500      0.0000 
     36 H          15.6856   -8.7903   -3.4086 H         1 FMN500      0.0000 
     37 H          13.8021   -7.8987   -2.0088 H         1 FMN500      0.0000 
     38 H          14.4927   -8.8153    0.1245 H         1 FMN500      0.0000 
     39 H          15.6595  -10.3893   -2.1808 H         1 FMN500      0.0000 
     40 H          16.3534  -11.4007   -0.0959 H         1 FMN500      0.0000 
     41 H          15.0988  -12.3903   -0.8617 H         1 FMN500      0.0000 
     42 H          10.6476   -7.9968   -8.1494 H         1 FMN500      0.0000 
     43 H          10.1773   -9.1140   -7.0925 H         1 FMN500      0.0000 
     44 H           9.6782   -7.5938   -6.9311 H         1 FMN500      0.0000 
     45 H          11.8035  -10.7601   -6.2876 H         1 FMN500      0.0000 
     46 H          12.3286  -10.8590   -4.7708 H         1 FMN500      0.0000 
     47 H          10.8340  -10.3478   -5.0726 H         1 FMN500      0.0000 
     48 H          14.4513   -5.8813   -1.5093 H         1 FMN500      0.0000 
     49 H          16.6178   -9.3299    0.5405 H         1 FMN500      0.0000 
     50 H          13.1811  -11.0654   -1.1473 H         1 FMN500      0.0000 
@<TRIPOS>BOND
     1    2    1 1    
     2   18    1 2    
     3    3    2 2    
     4    4    2 am   
     5    5    4 am   
     6   32    4 1    
     7    6    5 2    
     8    7    5 1    
     9    8    7 2    
    10   18    7 1    
    11    9    8 1    
    12   10    9 ar   
    13   16    9 ar   
    14   11   10 ar   
    15   33   10 1    
    16   12   11 1    
    17   13   11 ar   
    18   42   12 1    
    19   43   12 1    
    20   44   12 1    
    21   14   13 1    
    22   15   13 ar   
    23   45   14 1    
    24   46   14 1    
    25   47   14 1    
    26   16   15 ar   
    27   34   15 1    
    28   17   16 1    
    29   18   17 1    
    30   19   17 1    
    31   20   19 1    
    32   35   19 1    
    33   36   19 1    
    34   21   20 1    
    35   22   20 1    
    36   37   20 1    
    37   48   21 1    
    38   23   22 1    
    39   24   22 1    
    40   38   22 1    
    41   49   23 1    
    42   25   24 1    
    43   26   24 1    
    44   39   24 1    
    45   50   25 1    
    46   27   26 1    
    47   40   26 1    
    48   41   26 1    
    49   28   27 1    
    50   29   28 ar   
    51   30   28 ar   
    52   31   28 ar   
@<TRIPOS>SUBSTRUCTURE
     1 FMN500      1 GROUP   
@<TRIPOS>SET

