#    Name: 3N86_1_CAVITY_N1_ALL.mol2
#    Modification time : Tue Mar 11 16:18:31 2014

@<TRIPOS>MOLECULE
3N86_1_CAVITY_N1_ALL.mol2
   33     0     5     0     0
SMALL
NO_CHARGES


@<TRIPOS>ATOM
      1 OG         27.7581   23.6187    1.3451 O.2       1 SER1        0.0000 
      2 OG         29.1396   23.0445    1.4541 O.2       1 SER1        0.0000 
      3 O          30.5210   22.4703    1.5631 O.2       2 ALA2        0.0000 
      4 CA         29.7164   24.1005   -0.2930 C.3       5 GLY6        0.0000 
      5 OG         27.7505   23.3212   -0.1251 O.2       1 SER1        0.0000 
      6 N          29.1320   22.7470   -0.0161 N.2       2 ALA2        0.0000 
      7 N          30.5134   22.1728    0.0929 N.2       2 ALA2        0.0000 
      8 O          28.9041   25.4331   -3.6193 O.2       2 ALA2        0.0000 
      9 N          30.2855   24.8589   -3.5103 N.2       2 ALA2        0.0000 
     10 O          28.1071   27.3607   -4.0053 O.2       2 ALA2        0.0000 
     11 CA         29.4885   26.7865   -3.8962 C.3       5 GLY6        0.0000 
     12 NZ         28.3273   24.3771   -1.8722 N.2       3 LYS4        0.0000 
     13 CA         29.7088   23.8029   -1.7632 C.3       5 GLY6        0.0000 
     14 CA         28.5552   21.6911    1.7310 C.3       5 GLY6        0.0000 
     15 O          29.9366   21.1169    1.8400 O.2       2 ALA2        0.0000 
     16 O          29.1243   22.4495   -1.4863 O.2       2 ALA2        0.0000 
     17 CZ         29.7316   24.6955    2.6473 C.ar      4 PHE5        0.0000 
     18 CZ         28.1147   27.6582   -2.5351 C.ar      4 PHE5        0.0000 
     19 N          29.4961   27.0840   -2.4261 N.2       2 ALA2        0.0000 
     20 CA         30.8776   26.5098   -2.3170 C.3       5 GLY6        0.0000 
     21 OG         29.1472   23.3420    2.9243 O.2       1 SER1        0.0000 
     22 CA         30.2932   25.1564   -2.0401 C.3       5 GLY6        0.0000 
     23 CZ         30.3084   25.7514    0.9003 C.ar      4 PHE5        0.0000 
     24 CA         29.5038   27.3815   -0.9559 C.3       5 GLY6        0.0000 
     25 CZ         28.9193   26.0281   -0.6790 C.ar      4 PHE5        0.0000 
     26 CA         30.0805   28.4374   -2.7030 C.3       5 GLY6        0.0000 
     27 N          28.5476   21.3936    0.2608 N.2       2 ALA2        0.0000 
     28 N          29.9290   20.8194    0.3698 N.2       2 ALA2        0.0000 
     29 OG         27.5303   26.3048   -2.2582 O.2       1 SER1        0.0000 
     30 OG         28.9117   25.7306   -2.1491 O.2       1 SER1        0.0000 
     31 CA         30.3008   25.4539   -0.5699 C.3       5 GLY6        0.0000 
     32 CZ         29.7240   24.3980    1.1772 C.ar      4 PHE5        0.0000 
     33 N          31.1055   23.8238    1.2862 N.2       2 ALA2        0.0000 
@<TRIPOS>BOND
@<TRIPOS>SUBSTRUCTURE
     1 SER1        1 GROUP   
     2 ALA2        3 GROUP   
     3 LYS4       12 GROUP   
     4 PHE5       17 GROUP   
     5 GLY6        4 GROUP   
@<TRIPOS>SET

