#    Name: 3n86_RJP_1_INTS_M
#    Modification time : Tue Mar 25 00:53:19 2014

@<TRIPOS>MOLECULE
3n86_RJP_1_INTS_M
   69     0     9     0     0
SMALL
NO_CHARGES


@<TRIPOS>ATOM
      1 N          28.5310   26.7465   -5.1375 N.am      2 SEC2        0.0000 
      2 N          28.3480   26.8320   -3.6200 N.am      8 SEL2        0.0000 
      3 N          28.7140   26.6610   -6.6550 N.am      5 SEP2        0.0000 
      4 N          32.7725   25.3595    2.6985 N.am      2 SEC2        0.0000 
      5 N          31.4300   25.0960    3.0840 N.am      8 SEL2        0.0000 
      6 N          34.1150   25.6230    2.3130 N.am      5 SEP2        0.0000 
      7 N          31.7610   25.2155    4.4940 N.am      2 SEC2        0.0000 
      8 N          32.0920   25.3350    5.9040 N.am      5 SEP2        0.0000 
      9 N          29.4295   24.9900    5.2350 N.am      2 SEC2        0.0000 
     10 N          29.5250   24.3920    4.0370 N.am      8 SEL2        0.0000 
     11 N          29.3340   25.5880    6.4330 N.am      5 SEP2        0.0000 
     12 N          28.2855   24.2845    4.4825 N.am      2 SEC2        0.0000 
     13 N          27.0460   24.1770    4.9280 N.am      5 SEP2        0.0000 
     14 N          27.9960   19.6805    0.4700 N.am      2 SEC2        0.0000 
     15 N          27.6360   20.9350    0.7890 N.am      8 SEL2        0.0000 
     16 N          28.3560   18.4260    0.1510 N.am      5 SEP2        0.0000 
     17 N          26.5040   21.2365   -0.0070 N.am      2 SEC2        0.0000 
     18 N          25.3720   21.5380   -0.8030 N.am      5 SEP2        0.0000 
     19 N          31.8030   21.9115    2.4105 N.am      2 SEC2        0.0000 
     20 N          31.3880   22.8590    1.5820 N.am      8 SEL2        0.0000 
     21 N          32.2180   20.9640    3.2390 N.am      5 SEP2        0.0000 
     22 O          32.7545   23.3000    1.3225 O.2       1 ALC1        0.0000 
     23 O          31.3880   22.8590    1.5820 O.2       7 ALL1        0.0000 
     24 O          34.1210   23.7410    1.0630 O.2       4 ALP1        0.0000 
     25 CA         30.9720   27.3335   -1.0955 C.3       3 GLC5        0.0000 
     26 CA         29.5260   26.3620   -1.6360 C.3       9 GLL5        0.0000 
     27 CA         32.4180   28.3050   -0.5550 C.3       6 GLP5        0.0000 
     28 CA         27.3200   25.0600   -3.1180 C.3       3 GLC5        0.0000 
     29 CA         28.8800   25.0060   -1.6410 C.3       9 GLL5        0.0000 
     30 CA         25.7600   25.1140   -4.5950 C.3       6 GLP5        0.0000 
     31 CA         25.4410   32.6485   -4.5590 C.3       3 GLC5        0.0000 
     32 CA         27.2460   31.9370   -3.7590 C.3       9 GLL5        0.0000 
     33 CA         23.6360   33.3600   -5.3590 C.3       6 GLP5        0.0000 
     34 CA         25.0670   31.3680   -5.1055 C.3       3 GLC5        0.0000 
     35 CA         26.9560   30.7130   -4.3700 C.3       9 GLL5        0.0000 
     36 CA         23.1780   32.0230   -5.8410 C.3       6 GLP5        0.0000 
     37 CA         30.5775   21.7200    3.3280 C.3       3 GLC5        0.0000 
     38 CA         28.9690   22.6180    2.0450 C.3       9 GLL5        0.0000 
     39 CA         32.1860   20.8220    4.6110 C.3       6 GLP5        0.0000 
     40 CA         28.4845   19.9065   -0.2115 C.3       3 GLC5        0.0000 
     41 CA         28.6940   21.8970    0.6970 C.3       9 GLL5        0.0000 
     42 CA         28.2750   17.9160   -1.1200 C.3       6 GLP5        0.0000 
     43 CA         30.9525   22.7880    3.6775 C.3       3 GLC5        0.0000 
     44 CA         30.1300   23.6300    1.8360 C.3       9 GLL5        0.0000 
     45 CA         31.7750   21.9460    5.5190 C.3       6 GLP5        0.0000 
     46 CA         30.7105   24.3230   -1.9233 C.3       3 GLC5        0.0000 
     47 CA         32.2180   22.9620   -2.2080 C.3       6 GLP5        0.0000 
     48 CA         30.8630   23.6478   -1.0513 C.3       3 GLC5        0.0000 
     49 CA         29.8980   24.5330    0.6260 C.3       9 GLL5        0.0000 
     50 CA         28.9260   33.0468   -4.0275 C.3       3 GLC5        0.0000 
     51 CA         28.0660   32.0340   -2.6110 C.3       9 GLL5        0.0000 
     52 CA         30.1960   34.1080   -4.8700 C.3       6 GLP5        0.0000 
     53 CA         27.2195   33.8967   -3.2575 C.3       3 GLC5        0.0000 
     54 CA         26.7830   35.8080   -3.3300 C.3       6 GLP5        0.0000 
     55 CA         26.6023   31.8673   -1.3960 C.3       3 GLC5        0.0000 
     56 CA         28.6290   30.8830   -2.0450 C.3       9 GLL5        0.0000 
     57 CA         24.8570   32.2760   -0.4640 C.3       6 GLP5        0.0000 
     58 CA         25.7800   31.1752   -2.8726 C.3       3 GLC5        0.0000 
     59 CA         24.2590   31.9100   -1.8160 C.3       6 GLP5        0.0000 
     60 CA         28.6578   25.0424    1.8485 C.3       3 GLC5        0.0000 
     61 CA         27.8240   26.7350    2.0590 C.3       6 GLP5        0.0000 
     62 CA         28.5438   21.2323    2.9615 C.3       3 GLC5        0.0000 
     63 CA         28.2560   20.2070    4.5520 C.3       6 GLP5        0.0000 
     64 CA         28.0442   25.8625   -0.0194 C.3       3 GLC5        0.0000 
     65 CA         29.1180   24.1340   -0.4150 C.3       9 GLL5        0.0000 
     66 CA         26.9280   26.8160    0.9880 C.3       6 GLP5        0.0000 
     67 CA         28.8884   29.2264   -4.5830 C.3       3 GLC5        0.0000 
     68 CA         28.3330   29.6610   -2.6620 C.3       9 GLL5        0.0000 
     69 CA         29.9960   28.5550   -5.7940 C.3       6 GLP5        0.0000 
@<TRIPOS>BOND
@<TRIPOS>SUBSTRUCTURE
     1 ALC1       22 GROUP        1 X    ALC  0     ROOT ALC X 1
     2 SEC2        1 GROUP        1 X    SEC  0     **** SEC X 2
     3 GLC5       25 GROUP        1 X    GLC  0     **** GLC X 6
     4 ALP1       24 GROUP        1 Y    ALP  0     ROOT ALP Y 8
     5 SEP2        3 GROUP        1 Y    SEP  0     **** SEP Y 9
     6 GLP5       27 GROUP        1 Y    GLP  0     **** GLP Y 13
     7 ALL1       23 GROUP        1 Z    ALL  0     ROOT ALL Z 15
     8 SEL2        2 GROUP        1 Z    SEL  0     **** SEL Z 16
     9 GLL5       26 GROUP        1 Z    GLL  0     **** GLL Z 20
@<TRIPOS>SET

