#    Name: 3n86_RJP_1_ligand
#    Modification time : Tue Mar 25 00:53:19 2014

@<TRIPOS>MOLECULE
3n86_RJP_1_ligand
   39    40     1     0     0
SMALL
NO_CHARGES


@<TRIPOS>ATOM
      1 OAA        28.3480   26.8320   -3.6200 O.2       1 RJP147      0.0000 
      2 OAB        31.4300   25.0960    3.0840 O.co2     1 RJP147      0.0000 
      3 OAC        29.5250   24.3920    4.0370 O.co2     1 RJP147      0.0000 
      4 OAD        27.6360   20.9350    0.7890 O.3       1 RJP147      0.0000 
      5 OAE        28.2490   22.4290   -1.7040 O.2       1 RJP147      0.0000 
      6 OAF        31.3880   22.8590    1.5820 O.3       1 RJP147      0.0000 
      7 CAG        29.5260   26.3620   -1.6360 C.3       1 RJP147      0.0000 
      8 CAH        28.8800   25.0060   -1.6410 C.3       1 RJP147      0.0000 
      9 CAI        29.8980   24.5330    0.6260 C.2       1 RJP147      0.0000 
     10 CAJ        27.2460   31.9370   -3.7590 C.ar      1 RJP147      0.0000 
     11 CAK        26.9560   30.7130   -4.3700 C.ar      1 RJP147      0.0000 
     12 CAL        28.0660   32.0340   -2.6110 C.ar      1 RJP147      0.0000 
     13 CAM        27.5010   29.5560   -3.7940 C.ar      1 RJP147      0.0000 
     14 CAN        28.6290   30.8830   -2.0450 C.ar      1 RJP147      0.0000 
     15 CAO        28.9690   22.6180    2.0450 C.3       1 RJP147      0.0000 
     16 NAP        28.8810   28.5370   -2.0980 N.am      1 RJP147      0.0000 
     17 CAQ        28.8010   27.2710   -2.5560 C.2       1 RJP147      0.0000 
     18 CAR        30.3500   24.4490    3.0760 C.2       1 RJP147      0.0000 
     19 CAS        29.1180   24.1340   -0.4150 C.2       1 RJP147      0.0000 
     20 CAT        28.3330   29.6610   -2.6620 C.ar      1 RJP147      0.0000 
     21 CAU        28.6940   21.8970    0.6970 C.3       1 RJP147      0.0000 
     22 CAV        28.5910   22.8820   -0.4770 C.2       1 RJP147      0.0000 
     23 CAW        30.1300   23.6300    1.8360 C.3       1 RJP147      0.0000 
     24 H          30.5685   26.2656   -1.9497 H         1 RJP147      0.0000 
     25 H          29.5087   26.7656   -0.6205 H         1 RJP147      0.0000 
     26 H          29.2207   24.4421   -2.5434 H         1 RJP147      0.0000 
     27 H          27.7775   25.1268   -1.7762 H         1 RJP147      0.0000 
     28 H          30.3686   25.4401    0.6669 H         1 RJP147      0.0000 
     29 H          26.8477   32.8106   -4.1580 H         1 RJP147      0.0000 
     30 H          26.3774   30.6620   -5.1933 H         1 RJP147      0.0000 
     31 H          28.2457   32.9535   -2.1955 H         1 RJP147      0.0000 
     32 H          27.2965   28.6372   -4.1928 H         1 RJP147      0.0000 
     33 H          29.2181   30.9319   -1.2336 H         1 RJP147      0.0000 
     34 H          29.2600   21.8933    2.7815 H         1 RJP147      0.0000 
     35 H          28.0873   23.1494    2.3489 H         1 RJP147      0.0000 
     36 H          29.4419   28.6936   -1.1774 H         1 RJP147      0.0000 
     37 H          29.6712   21.3173    0.5009 H         1 RJP147      0.0000 
     38 H          27.6193   20.6600    1.7503 H         1 RJP147      0.0000 
     39 H          32.0935   23.5538    1.4424 H         1 RJP147      0.0000 
@<TRIPOS>BOND
     1   17    1 2    
     2   18    2 ar   
     3   18    3 ar   
     4   21    4 1    
     5   38    4 1    
     6   22    5 2    
     7   23    6 1    
     8   39    6 1    
     9    8    7 1    
    10   17    7 1    
    11   24    7 1    
    12   25    7 1    
    13   19    8 1    
    14   26    8 1    
    15   27    8 1    
    16   19    9 2    
    17   23    9 1    
    18   28    9 1    
    19   11   10 ar   
    20   12   10 ar   
    21   29   10 1    
    22   13   11 ar   
    23   30   11 1    
    24   14   12 ar   
    25   31   12 1    
    26   20   13 ar   
    27   32   13 1    
    28   20   14 ar   
    29   33   14 1    
    30   21   15 1    
    31   23   15 1    
    32   34   15 1    
    33   35   15 1    
    34   17   16 am   
    35   20   16 1    
    36   36   16 1    
    37   23   18 1    
    38   22   19 1    
    39   22   21 1    
    40   37   21 1    
@<TRIPOS>SUBSTRUCTURE
     1 RJP147      1 GROUP   
@<TRIPOS>SET

