#    Name: 2r3p_3SC_1_INTS_M
#    Modification time : Mon Mar 24 23:05:21 2014

@<TRIPOS>MOLECULE
2r3p_3SC_1_INTS_M
   66     0     9     0     0
SMALL
NO_CHARGES


@<TRIPOS>ATOM
      1 N           2.5680   32.0990    6.2460 N.am      2 SEC2        0.0000 
      2 N           1.4920   31.0930    7.0480 N.am      8 SEL2        0.0000 
      3 N           3.6440   33.1050    5.4440 N.am      5 SEP2        0.0000 
      4 CA          2.7890   28.7535    9.8890 C.3       3 GLC5        0.0000 
      5 CA          1.6890   27.7740    8.6560 C.3       9 GLL5        0.0000 
      6 CA          3.8890   29.7330   11.1220 C.3       6 GLP5        0.0000 
      7 CA          2.2925   30.2205    9.0620 C.3       3 GLC5        0.0000 
      8 CA          2.1180   28.8340    7.9120 C.3       9 GLL5        0.0000 
      9 CA          2.4670   31.6070   10.2120 C.3       6 GLP5        0.0000 
     10 O           4.1070   29.8045    6.4920 O.2       1 ALC1        0.0000 
     11 O           3.3520   28.9230    7.2900 O.2       7 ALL1        0.0000 
     12 O           4.8620   30.6860    5.6940 O.2       4 ALP1        0.0000 
     13 CA          4.2010   28.9210    9.3315 C.3       3 GLC5        0.0000 
     14 CA          4.5130   28.1090    7.5410 C.3       9 GLL5        0.0000 
     15 CA          6.0325   28.8300    4.9200 C.3       3 GLC5        0.0000 
     16 CA          4.6210   27.2420    5.1860 C.3       9 GLL5        0.0000 
     17 CA          7.4440   30.4180    4.6540 C.3       6 GLP5        0.0000 
     18 CA          3.1520   25.6720    3.4680 C.3       3 GLC5        0.0000 
     19 CA          4.6350   26.1670    4.3250 C.3       9 GLL5        0.0000 
     20 CA          1.6690   25.1770    2.6110 C.3       6 GLP5        0.0000 
     21 CA          2.8005   24.6890    4.9885 C.3       3 GLC5        0.0000 
     22 CA          4.4890   24.6380    6.0300 C.3       9 GLL5        0.0000 
     23 CA          1.1120   24.7400    3.9470 C.3       6 GLP5        0.0000 
     24 CA         -2.8065   23.7780   11.5345 C.3       3 GLC5        0.0000 
     25 CA         -0.8360   24.5290   11.6070 C.3       9 GLL5        0.0000 
     26 CA         -4.7770   23.0270   11.4620 C.3       6 GLP5        0.0000 
     27 CA         -0.7415   22.9440    8.5410 C.3       3 GLC5        0.0000 
     28 CA         -0.5690   24.3790   10.2520 C.3       9 GLL5        0.0000 
     29 CA         -0.9140   21.5090    6.8300 C.3       6 GLP5        0.0000 
     30 CA         -1.9530   31.5085    6.6630 C.3       3 GLC5        0.0000 
     31 CA         -2.1600   31.7240    8.5020 C.3       9 GLL5        0.0000 
     32 CA         -1.7460   31.2930    4.8240 C.3       6 GLP5        0.0000 
     33 CA         -1.2415   33.6090    8.9655 C.3       3 GLC5        0.0000 
     34 CA         -0.3230   35.4940    9.4290 C.3       6 GLP5        0.0000 
     35 CA         -2.8070   33.0940    7.7325 C.3       3 GLC5        0.0000 
     36 CA         -3.4540   34.4640    6.9630 C.3       6 GLP5        0.0000 
     37 CA         -2.8210   28.6540    7.8170 C.3       3 GLC5        0.0000 
     38 CA         -2.8430   30.3170    9.2150 C.3       9 GLL5        0.0000 
     39 CA         -2.7990   26.9910    6.4190 C.3       6 GLP5        0.0000 
     40 CA         -4.0535   31.7565    8.6650 C.3       3 GLC5        0.0000 
     41 CA         -5.2640   33.1960    8.1150 C.3       6 GLP5        0.0000 
     42 CA          0.1045   28.6090   13.8715 C.3       3 GLC5        0.0000 
     43 CA         -0.2490   28.4220   12.1690 C.3       9 GLL5        0.0000 
     44 CA          0.4580   28.7960   15.5740 C.3       6 GLP5        0.0000 
     45 CA          1.8200   29.0775   11.6455 C.3       3 GLC5        0.0000 
     46 CA         -0.1235   30.1830   12.5280 C.3       3 GLC5        0.0000 
     47 CA          0.0020   31.9440   12.8870 C.3       6 GLP5        0.0000 
     48 CA         -1.0330   25.2115   15.9320 C.3       3 GLC5        0.0000 
     49 CA         -1.0860   25.8570   13.9010 C.3       9 GLL5        0.0000 
     50 CA         -0.9800   24.5660   17.9630 C.3       6 GLP5        0.0000 
     51 CA          0.5500   24.7815   13.8360 C.3       3 GLC5        0.0000 
     52 CA          2.1860   23.7060   13.7710 C.3       6 GLP5        0.0000 
     53 CA         -0.3140   27.3265   14.7375 C.3       3 GLC5        0.0000 
     54 CA         -1.0188   30.9105    6.5137 C.3       3 GLC5        0.0000 
     55 CA         -0.0020   29.9290    8.3680 C.3       9 GLL5        0.0000 
     56 CA          1.0878   31.0675    9.2077 C.3       3 GLC5        0.0000 
     57 CA         -0.5810   31.1270    8.0390 C.3       9 GLL5        0.0000 
     58 CA          1.1778   27.6795    6.5265 C.3       3 GLC5        0.0000 
     59 CA          0.4520   27.0550    4.7690 C.3       6 GLP5        0.0000 
     60 CA          6.4637   28.0635    7.4350 C.3       3 GLC5        0.0000 
     61 CA          4.5340   26.9870    6.5510 C.3       9 GLL5        0.0000 
     62 CA          8.4040   28.5790    7.8240 C.3       6 GLP5        0.0000 
     63 CA          2.5148   27.0847    5.3187 C.3       3 GLC5        0.0000 
     64 CA          0.6985   24.4295   12.8398 C.3       3 GLC5        0.0000 
     65 CA         -2.1653   25.1925    8.9555 C.3       3 GLC5        0.0000 
     66 CA         -3.9530   25.4580    8.0460 C.3       6 GLP5        0.0000 
@<TRIPOS>BOND
@<TRIPOS>SUBSTRUCTURE
     1 ALC1       10 GROUP        1 X    ALC  0     ROOT ALC X 1
     2 SEC2        1 GROUP        1 X    SEC  0     **** SEC X 2
     3 GLC5        4 GROUP        1 X    GLC  0     **** GLC X 6
     4 ALP1       12 GROUP        1 Y    ALP  0     ROOT ALP Y 8
     5 SEP2        3 GROUP        1 Y    SEP  0     **** SEP Y 9
     6 GLP5        6 GROUP        1 Y    GLP  0     **** GLP Y 13
     7 ALL1       11 GROUP        1 Z    ALL  0     ROOT ALL Z 15
     8 SEL2        2 GROUP        1 Z    SEL  0     **** SEL Z 16
     9 GLL5        5 GROUP        1 Z    GLL  0     **** GLL Z 20
@<TRIPOS>SET

