#    Name: 2r3p_3SC_1_ligand
#    Modification time : Mon Mar 24 23:05:21 2014

@<TRIPOS>MOLECULE
2r3p_3SC_1_ligand
   40    43     1     0     0
SMALL
NO_CHARGES


@<TRIPOS>ATOM
      1 C01        -0.5810   31.1270    8.0390 C.2       1 3SC501      0.0000 
      2 C02        -0.0020   29.9290    8.3680 C.2       1 3SC501      0.0000 
      3 N03         1.2540   29.9240    7.7520 N.pl3     1 3SC501      0.0000 
      4 N04         1.4920   31.0930    7.0480 N.2       1 3SC501      0.0000 
      5 C05         0.3720   31.8130    7.2310 C.2       1 3SC501      0.0000 
      6 N06        -0.4570   28.8830    9.1120 N.2       1 3SC501      0.0000 
      7 C07         0.3260   27.8810    9.2430 C.2       1 3SC501      0.0000 
      8 C08         1.6890   27.7740    8.6560 C.2       1 3SC501      0.0000 
      9 C09         2.1180   28.8340    7.9120 C.2       1 3SC501      0.0000 
     10 N10         3.3520   28.9230    7.2900 N.pl3     1 3SC501      0.0000 
     11 C11        -0.0920   26.7310   10.0770 C.ar      1 3SC501      0.0000 
     12 C12         4.5130   28.1090    7.5410 C.3       1 3SC501      0.0000 
     13 C13         4.5340   26.9870    6.5510 C.ar      1 3SC501      0.0000 
     14 C14         4.6210   27.2420    5.1860 C.ar      1 3SC501      0.0000 
     15 C15         4.6350   26.1670    4.3250 C.ar      1 3SC501      0.0000 
     16 N16         4.5740   24.8620    4.7160 N.ar      1 3SC501      0.0000 
     17 C17         4.4890   24.6380    6.0300 C.ar      1 3SC501      0.0000 
     18 C18         4.4700   25.6540    6.9830 C.ar      1 3SC501      0.0000 
     19 C19        -0.3660   26.8890   11.4490 C.ar      1 3SC501      0.0000 
     20 C20        -0.7420   25.7770   12.2100 C.ar      1 3SC501      0.0000 
     21 C21        -0.8360   24.5290   11.6070 C.ar      1 3SC501      0.0000 
     22 C22        -0.5690   24.3790   10.2520 C.ar      1 3SC501      0.0000 
     23 C23        -0.1860   25.4750    9.4780 C.ar      1 3SC501      0.0000 
     24 S24        -2.1600   31.7240    8.5020 S.3       1 3SC501      0.0000 
     25 C25        -2.8430   30.3170    9.2150 C.1       1 3SC501      0.0000 
     26 N26        -3.2780   29.3170    9.7170 N.1       1 3SC501      0.0000 
     27 CL27       -0.2490   28.4220   12.1690 Cl        1 3SC501      0.0000 
     28 CL28       -1.0860   25.8570   13.9010 Cl        1 3SC501      0.0000 
     29 H           0.1907   32.7035    6.8719 H         1 3SC501      0.0000 
     30 H           2.2134   26.9484    8.8312 H         1 3SC501      0.0000 
     31 H           3.4776   29.6749    6.5349 H         1 3SC501      0.0000 
     32 H           4.4886   27.6887    8.5500 H         1 3SC501      0.0000 
     33 H           5.4325   28.6908    7.4342 H         1 3SC501      0.0000 
     34 H           4.6725   28.1972    4.8404 H         1 3SC501      0.0000 
     35 H           4.6981   26.3755    3.2807 H         1 3SC501      0.0000 
     36 H           4.4318   23.6416    6.3911 H         1 3SC501      0.0000 
     37 H           4.4109   25.4376    7.9754 H         1 3SC501      0.0000 
     38 H          -1.1062   23.7071   12.1699 H         1 3SC501      0.0000 
     39 H          -0.6539   23.4498    9.8113 H         1 3SC501      0.0000 
     40 H           0.0228   25.3586    8.4853 H         1 3SC501      0.0000 
@<TRIPOS>BOND
     1    2    1 2    
     2    5    1 1    
     3   24    1 1    
     4    3    2 1    
     5    6    2 1    
     6    4    3 1    
     7    9    3 1    
     8    5    4 2    
     9   29    5 1    
    10    7    6 2    
    11    8    7 1    
    12   11    7 1    
    13    9    8 2    
    14   30    8 1    
    15   10    9 1    
    16   12   10 1    
    17   31   10 1    
    18   19   11 ar   
    19   23   11 ar   
    20   13   12 1    
    21   32   12 1    
    22   33   12 1    
    23   14   13 ar   
    24   18   13 ar   
    25   15   14 ar   
    26   34   14 1    
    27   16   15 ar   
    28   35   15 1    
    29   17   16 ar   
    30   18   17 ar   
    31   36   17 1    
    32   37   18 1    
    33   20   19 ar   
    34   27   19 1    
    35   21   20 ar   
    36   28   20 1    
    37   22   21 ar   
    38   38   21 1    
    39   23   22 ar   
    40   39   22 1    
    41   40   23 1    
    42   25   24 1    
    43   26   25 3    
@<TRIPOS>SUBSTRUCTURE
     1 3SC501      1 GROUP   
@<TRIPOS>SET

