#    Name: 3kec_3KE_1_INTS_M
#    Modification time : Mon Mar 24 19:20:27 2014

@<TRIPOS>MOLECULE
3kec_3KE_1_INTS_M
   73     0     9     0     0
SMALL
NO_CHARGES


@<TRIPOS>ATOM
      1 CA         80.0940   10.0865   35.0740 C.3       3 GLC5        0.0000 
      2 CA         82.0980    9.6500   35.7790 C.3       9 GLL5        0.0000 
      3 CA         78.0900   10.5230   34.3690 C.3       6 GLP5        0.0000 
      4 CA         89.0975    7.8145   36.4885 C.3       3 GLC5        0.0000 
      5 CA         88.4260    9.1780   34.9210 C.3       9 GLL5        0.0000 
      6 CA         89.7690    6.4510   38.0560 C.3       6 GLP5        0.0000 
      7 CA         87.8605    7.7650   33.4130 C.3       3 GLC5        0.0000 
      8 CA         87.2950    6.3520   31.9050 C.3       6 GLP5        0.0000 
      9 CA         90.3275    7.2230   32.7115 C.3       3 GLC5        0.0000 
     10 CA         89.7650    9.1390   32.8490 C.3       9 GLL5        0.0000 
     11 CA         90.8900    5.3070   32.5740 C.3       6 GLP5        0.0000 
     12 CA         88.5300    7.7455   32.3770 C.3       3 GLC5        0.0000 
     13 N          86.8255   11.3855   37.7090 N.am      1 SEC2        0.0000 
     14 N          86.7990   10.9750   36.1690 N.am      7 SEL2        0.0000 
     15 N          86.8520   11.7960   39.2490 N.am      4 SEP2        0.0000 
     16 N          90.0350   14.0695   30.5295 N.am      1 SEC2        0.0000 
     17 N          90.1810   12.7300   29.8510 N.am      7 SEL2        0.0000 
     18 N          89.8890   15.4090   31.2080 N.am      4 SEP2        0.0000 
     19 NZ         89.6900    9.5245   28.1690 N.4       2 LYC4        0.0000 
     20 NZ         90.5280   10.6420   29.0800 N.4       8 LYL4        0.0000 
     21 NZ         88.8520    8.4070   27.2580 N.4       5 LYP4        0.0000 
     22 N          89.6900    9.5245   28.1690 N.am      1 SEC2        0.0000 
     23 N          90.5280   10.6420   29.0800 N.am      7 SEL2        0.0000 
     24 N          88.8520    8.4070   27.2580 N.am      4 SEP2        0.0000 
     25 N          82.0035   14.9915   38.0885 N.am      1 SEC2        0.0000 
     26 N          81.6710   14.0570   37.0550 N.am      7 SEL2        0.0000 
     27 N          82.3360   15.9260   39.1220 N.am      4 SEP2        0.0000 
     28 CA         78.6965   12.3575   35.4485 C.3       3 GLC5        0.0000 
     29 CA         79.3030   14.1920   36.5280 C.3       9 GLL5        0.0000 
     30 CA         80.6295   18.1020   35.4635 C.3       3 GLC5        0.0000 
     31 CA         79.3940   17.4220   33.7590 C.3       9 GLL5        0.0000 
     32 CA         81.8650   18.7820   37.1680 C.3       6 GLP5        0.0000 
     33 CA         78.0455   17.2670   37.4825 C.3       3 GLC5        0.0000 
     34 CA         78.4990   16.3730   35.7050 C.3       9 GLL5        0.0000 
     35 CA         77.5920   18.1610   39.2600 C.3       6 GLP5        0.0000 
     36 CA         82.2315   14.7230   33.7730 C.3       3 GLC5        0.0000 
     37 CA         80.2510   15.3110   34.4800 C.3       9 GLL5        0.0000 
     38 CA         84.2120   14.1350   33.0660 C.3       6 GLP5        0.0000 
     39 CA         80.1480   13.5660   33.3745 C.3       3 GLC5        0.0000 
     40 CA         80.0450   11.8210   32.2690 C.3       6 GLP5        0.0000 
     41 CA         79.9090   20.5065   33.8120 C.3       3 GLC5        0.0000 
     42 CA         78.2980   19.3070   33.0240 C.3       9 GLL5        0.0000 
     43 CA         81.5200   21.7060   34.6000 C.3       6 GLP5        0.0000 
     44 CA         79.5495   19.6585   31.5360 C.3       3 GLC5        0.0000 
     45 CA         80.8010   20.0100   30.0480 C.3       6 GLP5        0.0000 
     46 CA         77.1580   18.0685   32.3070 C.3       3 GLC5        0.0000 
     47 CA         76.0180   16.8300   31.5900 C.3       6 GLP5        0.0000 
     48 CA         81.0162    7.5802   35.6050 C.3       3 GLC5        0.0000 
     49 CA         79.5560    6.0710   35.5690 C.3       6 GLP5        0.0000 
     50 CA         84.3192   10.1065   37.6940 C.3       3 GLC5        0.0000 
     51 CA         84.0950   10.9380   35.9650 C.3       9 GLL5        0.0000 
     52 CA         85.2300    9.3150   39.4010 C.3       6 GLP5        0.0000 
     53 CA         88.4090    8.8805   31.1943 C.3       3 GLC5        0.0000 
     54 CA         90.1860    9.6850   31.6570 C.3       9 GLL5        0.0000 
     55 CA         86.8750    7.4670   30.9400 C.3       6 GLP5        0.0000 
     56 CA         87.7430    8.9402   32.1845 C.3       3 GLC5        0.0000 
     57 CA         88.8550    9.8030   33.6370 C.3       9 GLL5        0.0000 
     58 CA         84.0271   11.5057   34.2980 C.3       3 GLC5        0.0000 
     59 CA         84.8380    9.8150   35.6910 C.3       9 GLL5        0.0000 
     60 CA         83.9310   12.6550   32.7570 C.3       6 GLP5        0.0000 
     61 CA         84.8830    9.2613   37.4878 C.3       3 GLC5        0.0000 
     62 CA         80.7837   17.2765   31.9215 C.3       3 GLC5        0.0000 
     63 CA         80.2670   16.3680   33.5890 C.3       9 GLL5        0.0000 
     64 CA         81.7370   17.6580   30.1690 C.3       6 GLP5        0.0000 
     65 CA         77.9240   16.6308   33.0700 C.3       3 GLC5        0.0000 
     66 CA         76.8980   15.8350   31.8500 C.3       6 GLP5        0.0000 
     67 CA         79.8167   17.2860   36.5995 C.3       3 GLC5        0.0000 
     68 CA         78.5060   17.4310   34.8210 C.3       9 GLL5        0.0000 
     69 CA         81.1310   17.6700   37.9360 C.3       6 GLP5        0.0000 
     70 CA         77.9145   15.8385   33.7370 C.3       3 GLC5        0.0000 
     71 CA         79.1740   15.5922   32.5598 C.3       3 GLC5        0.0000 
     72 CA         78.0890   15.3450   31.0850 C.3       6 GLP5        0.0000 
     73 CA         80.4615   16.3506   36.5969 C.3       3 GLC5        0.0000 
@<TRIPOS>BOND
@<TRIPOS>SUBSTRUCTURE
     1 SEC2       13 GROUP        1 X    SEC  0     ROOT SEC X 2
     2 LYC4       19 GROUP        1 X    LYC  0     **** LYC X 4
     3 GLC5        1 GROUP        1 X    GLC  0     **** GLC X 6
     4 SEP2       15 GROUP        1 Y    SEP  0     ROOT SEP Y 9
     5 LYP4       21 GROUP        1 Y    LYP  0     **** LYP Y 11
     6 GLP5        3 GROUP        1 Y    GLP  0     **** GLP Y 13
     7 SEL2       14 GROUP        1 Z    SEL  0     ROOT SEL Z 16
     8 LYL4       20 GROUP        1 Z    LYL  0     **** LYL Z 18
     9 GLL5        2 GROUP        1 Z    GLL  0     **** GLL Z 20
@<TRIPOS>SET

