#    Name: 3kec_3KE_1_ligand
#    Modification time : Mon Mar 24 19:20:27 2014

@<TRIPOS>MOLECULE
3kec_3KE_1_ligand
   53    56     1     0     0
SMALL
NO_CHARGES


@<TRIPOS>ATOM
      1 C3         82.0980    9.6500   35.7790 C.ar      1 3KE271      0.0000 
      2 C22        82.7220   10.8580   36.0090 C.ar      1 3KE271      0.0000 
      3 C7         86.2950    9.9820   35.6580 C.2       1 3KE271      0.0000 
      4 N2         86.9950    8.9940   35.0160 N.am      1 3KE271      0.0000 
      5 C11        88.4260    9.1780   34.9210 C.3       1 3KE271      0.0000 
      6 C9         89.7000   10.9030   31.2400 C.ar      1 3KE271      0.0000 
      7 C12        90.1860    9.6850   31.6570 C.ar      1 3KE271      0.0000 
      8 C14        89.7650    9.1390   32.8490 C.ar      1 3KE271      0.0000 
      9 C20        88.8550    9.8030   33.6370 C.ar      1 3KE271      0.0000 
     10 C16        88.3670   11.0240   33.2210 C.ar      1 3KE271      0.0000 
     11 C18        88.7870   11.5710   32.0270 C.ar      1 3KE271      0.0000 
     12 C2         82.8550    8.5290   35.5030 C.ar      1 3KE271      0.0000 
     13 C23        84.0950   10.9380   35.9650 C.ar      1 3KE271      0.0000 
     14 C8         84.8380    9.8150   35.6910 C.ar      1 3KE271      0.0000 
     15 C6         84.2340    8.6000   35.4580 C.ar      1 3KE271      0.0000 
     16 O3         86.7990   10.9750   36.1690 O.2       1 3KE271      0.0000 
     17 C24        90.1690   11.4700   29.9610 C.2       1 3KE271      0.0000 
     18 O4         90.1810   12.7300   29.8510 O.co2     1 3KE271      0.0000 
     19 O5         90.5280   10.6420   29.0800 O.co2     1 3KE271      0.0000 
     20 N1         80.6850   12.2450   36.0680 N.2       1 3KE271      0.0000 
     21 N5         80.5640   13.4890   36.5520 N.pl3     1 3KE271      0.0000 
     22 N3         81.6710   14.0570   37.0550 N.2       1 3KE271      0.0000 
     23 N4         82.6070   13.1310   36.9020 N.2       1 3KE271      0.0000 
     24 C5         81.9900   12.0560   36.3110 C.2       1 3KE271      0.0000 
     25 C1         79.3030   14.1920   36.5280 C.3       1 3KE271      0.0000 
     26 C21        79.3940   17.4220   33.7590 C.ar      1 3KE271      0.0000 
     27 C15        78.5060   17.4310   34.8210 C.ar      1 3KE271      0.0000 
     28 C10        78.4990   16.3730   35.7050 C.ar      1 3KE271      0.0000 
     29 C4         79.3630   15.3110   35.5430 C.ar      1 3KE271      0.0000 
     30 C19        80.2510   15.3110   34.4800 C.ar      1 3KE271      0.0000 
     31 C17        80.2670   16.3680   33.5890 C.ar      1 3KE271      0.0000 
     32 O1         79.4330   18.4670   32.8370 O.3       1 3KE271      0.0000 
     33 C13        78.2980   19.3070   33.0240 C.3       1 3KE271      0.0000 
     34 H          81.0704    9.5835   35.8129 H         1 3KE271      0.0000 
     35 H          86.5743    8.1790   34.6235 H         1 3KE271      0.0000 
     36 H          88.9491    8.2025   35.0314 H         1 3KE271      0.0000 
     37 H          88.7909    9.8097   35.7608 H         1 3KE271      0.0000 
     38 H          90.8719    9.1760   31.0717 H         1 3KE271      0.0000 
     39 H          90.1374    8.2209   33.1534 H         1 3KE271      0.0000 
     40 H          87.6828   11.5316   33.8074 H         1 3KE271      0.0000 
     41 H          88.4152   12.4862   31.7212 H         1 3KE271      0.0000 
     42 H          82.3832    7.6223   35.3272 H         1 3KE271      0.0000 
     43 H          84.5655   11.8409   36.1377 H         1 3KE271      0.0000 
     44 H          84.7915    7.7676   35.2560 H         1 3KE271      0.0000 
     45 H          79.0668   14.6034   37.5189 H         1 3KE271      0.0000 
     46 H          78.4844   13.5153   36.2473 H         1 3KE271      0.0000 
     47 H          77.8599   18.2191   34.9469 H         1 3KE271      0.0000 
     48 H          77.8347   16.3761   36.5027 H         1 3KE271      0.0000 
     49 H          80.9012   14.5203   34.3539 H         1 3KE271      0.0000 
     50 H          80.9301   16.3668   32.8004 H         1 3KE271      0.0000 
     51 H          78.2759   19.7025   33.9422 H         1 3KE271      0.0000 
     52 H          78.2891   20.0689   32.3764 H         1 3KE271      0.0000 
     53 H          77.4411   18.8067   32.8997 H         1 3KE271      0.0000 
@<TRIPOS>BOND
     1    2    1 ar   
     2   12    1 ar   
     3   34    1 1    
     4   13    2 ar   
     5   24    2 1    
     6    4    3 am   
     7   14    3 1    
     8   16    3 2    
     9    5    4 1    
    10   35    4 1    
    11    9    5 1    
    12   36    5 1    
    13   37    5 1    
    14    7    6 ar   
    15   11    6 ar   
    16   17    6 1    
    17    8    7 ar   
    18   38    7 1    
    19    9    8 ar   
    20   39    8 1    
    21   10    9 ar   
    22   11   10 ar   
    23   40   10 1    
    24   41   11 1    
    25   15   12 ar   
    26   42   12 1    
    27   14   13 ar   
    28   43   13 1    
    29   15   14 ar   
    30   44   15 1    
    31   18   17 ar   
    32   19   17 ar   
    33   21   20 1    
    34   24   20 2    
    35   22   21 1    
    36   25   21 1    
    37   23   22 2    
    38   24   23 1    
    39   29   25 1    
    40   45   25 1    
    41   46   25 1    
    42   27   26 ar   
    43   31   26 ar   
    44   32   26 1    
    45   28   27 ar   
    46   47   27 1    
    47   29   28 ar   
    48   48   28 1    
    49   30   29 ar   
    50   31   30 ar   
    51   49   30 1    
    52   50   31 1    
    53   33   32 1    
    54   51   33 1    
    55   52   33 1    
    56   53   33 1    
@<TRIPOS>SUBSTRUCTURE
     1 3KE271      1 GROUP   
@<TRIPOS>SET

