#    Name: 1N6C_1_CAVITY_N1_ALL.mol2
#    Modification time : Mon Mar 10 18:52:58 2014

@<TRIPOS>MOLECULE
1N6C_1_CAVITY_N1_ALL.mol2
   88     0     5     0     0
SMALL
NO_CHARGES


@<TRIPOS>ATOM
      1 CA          0.1037   53.4107   28.9232 C.3       4 GLY6        0.0000 
      2 N          -0.8939   55.2266   28.4679 N.2       2 ALA2        0.0000 
      3 CA          0.3817   54.5763   28.0208 C.3       4 GLY6        0.0000 
      4 N          -1.6325   54.5421   27.3561 N.2       2 ALA2        0.0000 
      5 N           0.1227   57.0767   28.6773 N.2       2 ALA2        0.0000 
      6 CA          1.3983   56.4264   28.2302 C.3       4 GLY6        0.0000 
      7 N          -0.6159   56.3922   27.5655 N.2       2 ALA2        0.0000 
      8 CA          0.6597   55.7419   27.1185 C.3       4 GLY6        0.0000 
      9 CA          1.9353   55.0915   26.6715 C.3       4 GLY6        0.0000 
     10 O           3.2110   54.4412   26.2244 O.2       2 ALA2        0.0000 
     11 O           4.4866   53.7909   25.7774 O.2       2 ALA2        0.0000 
     12 N          -0.0789   55.0573   26.0068 N.2       2 ALA2        0.0000 
     13 N           0.4006   58.2422   27.7749 N.2       2 ALA2        0.0000 
     14 OG          1.6763   57.5919   27.3279 O.2       1 SER1        0.0000 
     15 OG          2.9519   56.9416   26.8809 O.2       1 SER1        0.0000 
     16 OG          4.2275   56.2913   26.4338 O.2       1 SER1        0.0000 
     17 CA         -0.3379   57.5577   26.6632 C.3       4 GLY6        0.0000 
     18 N           0.9377   56.9074   26.2162 N.2       2 ALA2        0.0000 
     19 CA          2.2133   56.2571   25.7691 C.3       4 GLY6        0.0000 
     20 CA          3.4890   55.6068   25.3221 C.3       4 GLY6        0.0000 
     21 N           4.7646   54.9564   24.8750 N.2       2 ALA2        0.0000 
     22 OG          0.6786   59.4078   26.8726 O.2       1 SER1        0.0000 
     23 OG          1.9543   58.7575   26.4256 O.2       1 SER1        0.0000 
     24 OG          4.5055   57.4568   25.5315 O.2       1 SER1        0.0000 
     25 CZ          5.7812   56.8065   25.0844 C.ar      3 PHE5        0.0000 
     26 CA         -0.0599   58.7233   25.7609 C.3       4 GLY6        0.0000 
     27 N           6.3182   55.4717   23.5257 N.2       2 ALA2        0.0000 
     28 N           5.5796   54.7871   22.4139 N.2       2 ALA2        0.0000 
     29 CZ          1.6952   61.2579   27.0820 C.ar      3 PHE5        0.0000 
     30 OG          5.5221   59.3069   25.7409 O.2       1 SER1        0.0000 
     31 OG          0.9566   60.5734   25.9703 O.2       1 SER1        0.0000 
     32 N           2.2323   59.9230   25.5232 N.2       2 ALA2        0.0000 
     33 OG          3.5079   59.2727   25.0762 O.2       1 SER1        0.0000 
     34 N           4.7835   58.6224   24.6291 N.2       2 ALA2        0.0000 
     35 N           6.5962   56.6372   22.6233 N.2       2 ALA2        0.0000 
     36 O           7.1333   55.3024   21.0646 O.2       2 ALA2        0.0000 
     37 N           3.9874   62.4576   26.8443 N.2       2 ALA2        0.0000 
     38 CZ          5.2630   61.8073   26.3973 C.ar      3 PHE5        0.0000 
     39 DU          1.9732   62.4234   26.1797 H         5 CUB7        0.0000 
     40 OG          3.2488   61.7731   25.7326 O.2       1 SER1        0.0000 
     41 OG          4.5244   61.1228   25.2856 O.2       1 SER1        0.0000 
     42 CZ          5.8001   60.4724   24.8385 C.ar      3 PHE5        0.0000 
     43 OG          1.2346   61.7389   25.0679 O.2       1 SER1        0.0000 
     44 N           2.5102   61.0886   24.6209 N.2       2 ALA2        0.0000 
     45 N           3.7859   60.4383   24.1738 N.2       2 ALA2        0.0000 
     46 N           5.0615   59.7879   23.7268 N.2       2 ALA2        0.0000 
     47 CZ          6.3371   59.1376   23.2798 C.ar      3 PHE5        0.0000 
     48 N           6.8742   57.8028   21.7210 N.2       2 ALA2        0.0000 
     49 N           2.9897   64.2735   26.3891 N.2       2 ALA2        0.0000 
     50 N           4.2654   63.6232   25.9420 N.2       2 ALA2        0.0000 
     51 O           5.5410   62.9728   25.4950 O.2       2 ALA2        0.0000 
     52 CA          6.8166   62.3225   25.0479 C.3       4 GLY6        0.0000 
     53 N           2.2512   63.5890   25.2773 N.2       2 ALA2        0.0000 
     54 N           3.5268   62.9386   24.8303 N.2       2 ALA2        0.0000 
     55 N           4.8024   62.2883   24.3832 N.2       2 ALA2        0.0000 
     56 N           6.0781   61.6380   23.9362 N.2       2 ALA2        0.0000 
     57 OG          7.3537   60.9877   23.4892 O.2       1 SER1        0.0000 
     58 OG          1.5126   62.9045   24.1656 O.2       1 SER1        0.0000 
     59 N           5.3395   60.9535   22.8245 N.2       2 ALA2        0.0000 
     60 OG          6.6151   60.3032   22.3774 O.2       1 SER1        0.0000 
     61 OG          7.8908   59.6528   21.9304 O.2       1 SER1        0.0000 
     62 OG          5.8765   59.6186   21.2657 O.2       1 SER1        0.0000 
     63 OG          7.1522   58.9683   20.8187 O.2       1 SER1        0.0000 
     64 N           4.0063   66.1236   26.5984 N.2       2 ALA2        0.0000 
     65 CA          5.2819   65.4732   26.1514 C.3       4 GLY6        0.0000 
     66 O           6.5576   64.8229   25.7044 O.2       2 ALA2        0.0000 
     67 O           7.8332   64.1726   25.2573 O.2       2 ALA2        0.0000 
     68 CA          3.2677   65.4390   25.4867 C.3       4 GLY6        0.0000 
     69 CA          4.5434   64.7887   25.0397 C.3       4 GLY6        0.0000 
     70 CA          5.8190   64.1384   24.5926 C.3       4 GLY6        0.0000 
     71 CA          7.0946   63.4881   24.1456 C.3       4 GLY6        0.0000 
     72 O           2.5292   64.7545   24.3750 O.2       2 ALA2        0.0000 
     73 N           3.8048   64.1042   23.9279 N.2       2 ALA2        0.0000 
     74 N           5.0804   63.4539   23.4809 N.2       2 ALA2        0.0000 
     75 CA          6.3561   62.8035   23.0339 C.3       4 GLY6        0.0000 
     76 N           5.6175   62.1190   21.9221 N.2       2 ALA2        0.0000 
     77 OG          6.8931   61.4687   21.4751 O.2       1 SER1        0.0000 
     78 CA          7.5741   66.6730   25.9138 C.3       4 GLY6        0.0000 
     79 CZ          8.8498   66.0226   25.4667 C.ar      3 PHE5        0.0000 
     80 CA          4.2843   67.2891   25.6961 C.3       4 GLY6        0.0000 
     81 CA          5.5599   66.6388   25.2491 C.3       4 GLY6        0.0000 
     82 CA          6.8356   65.9885   24.8020 C.3       4 GLY6        0.0000 
     83 CZ          8.1112   65.3381   24.3550 C.ar      3 PHE5        0.0000 
     84 O           4.8214   65.9543   24.1373 O.2       2 ALA2        0.0000 
     85 CZ          9.1278   67.1882   24.5644 C.ar      3 PHE5        0.0000 
     86 CA          4.5623   68.4547   24.7938 C.3       4 GLY6        0.0000 
     87 CA          5.8379   67.8043   24.3467 C.3       4 GLY6        0.0000 
     88 CA          7.1135   67.1540   23.8997 C.3       4 GLY6        0.0000 
@<TRIPOS>BOND
@<TRIPOS>SUBSTRUCTURE
     1 SER1       14 GROUP   
     2 ALA2        2 GROUP   
     3 PHE5       25 GROUP   
     4 GLY6        1 GROUP   
     5 CUB7       39 GROUP   
@<TRIPOS>SET

