#    Name: 1N6C_1_CAVITY_N1_6.mol2
#    Modification time : Mon Mar 10 18:52:58 2014

@<TRIPOS>MOLECULE
1N6C_1_CAVITY_N1_6.mol2
   37     0     4     0     0
SMALL
NO_CHARGES


@<TRIPOS>ATOM
      1 CA          0.3817   54.5763   28.0208 C.3       4 GLY6        0.0000 
      2 CA          1.3983   56.4264   28.2302 C.3       4 GLY6        0.0000 
      3 CA          0.6597   55.7419   27.1185 C.3       4 GLY6        0.0000 
      4 CA          1.9353   55.0915   26.6715 C.3       4 GLY6        0.0000 
      5 O           3.2110   54.4412   26.2244 O.2       2 ALA2        0.0000 
      6 O           4.4866   53.7909   25.7774 O.2       2 ALA2        0.0000 
      7 N          -0.0789   55.0573   26.0068 N.2       2 ALA2        0.0000 
      8 OG          1.6763   57.5919   27.3279 O.2       1 SER1        0.0000 
      9 OG          2.9519   56.9416   26.8809 O.2       1 SER1        0.0000 
     10 OG          4.2275   56.2913   26.4338 O.2       1 SER1        0.0000 
     11 N           0.9377   56.9074   26.2162 N.2       2 ALA2        0.0000 
     12 CA          2.2133   56.2571   25.7691 C.3       4 GLY6        0.0000 
     13 CA          3.4890   55.6068   25.3221 C.3       4 GLY6        0.0000 
     14 N           4.7646   54.9564   24.8750 N.2       2 ALA2        0.0000 
     15 OG          1.9543   58.7575   26.4256 O.2       1 SER1        0.0000 
     16 OG          4.5055   57.4568   25.5315 O.2       1 SER1        0.0000 
     17 CZ          5.7812   56.8065   25.0844 C.ar      3 PHE5        0.0000 
     18 N           6.3182   55.4717   23.5257 N.2       2 ALA2        0.0000 
     19 N           5.5796   54.7871   22.4139 N.2       2 ALA2        0.0000 
     20 OG          5.5221   59.3069   25.7409 O.2       1 SER1        0.0000 
     21 OG          3.5079   59.2727   25.0762 O.2       1 SER1        0.0000 
     22 N           4.7835   58.6224   24.6291 N.2       2 ALA2        0.0000 
     23 N           6.5962   56.6372   22.6233 N.2       2 ALA2        0.0000 
     24 O           7.1333   55.3024   21.0646 O.2       2 ALA2        0.0000 
     25 CZ          5.8001   60.4724   24.8385 C.ar      3 PHE5        0.0000 
     26 N           5.0615   59.7879   23.7268 N.2       2 ALA2        0.0000 
     27 CZ          6.3371   59.1376   23.2798 C.ar      3 PHE5        0.0000 
     28 N           6.8742   57.8028   21.7210 N.2       2 ALA2        0.0000 
     29 N           6.0781   61.6380   23.9362 N.2       2 ALA2        0.0000 
     30 OG          7.3537   60.9877   23.4892 O.2       1 SER1        0.0000 
     31 N           5.3395   60.9535   22.8245 N.2       2 ALA2        0.0000 
     32 OG          6.6151   60.3032   22.3774 O.2       1 SER1        0.0000 
     33 OG          7.8908   59.6528   21.9304 O.2       1 SER1        0.0000 
     34 OG          5.8765   59.6186   21.2657 O.2       1 SER1        0.0000 
     35 OG          7.1522   58.9683   20.8187 O.2       1 SER1        0.0000 
     36 N           5.6175   62.1190   21.9221 N.2       2 ALA2        0.0000 
     37 OG          6.8931   61.4687   21.4751 O.2       1 SER1        0.0000 
@<TRIPOS>BOND
@<TRIPOS>SUBSTRUCTURE
     1 SER1        8 GROUP   
     2 ALA2        5 GROUP   
     3 PHE5       17 GROUP   
     4 GLY6        1 GROUP   
@<TRIPOS>SET

