#    Name: 1n6c_SAM_1_INTS_M
#    Modification time : Mon Mar 24 17:45:06 2014

@<TRIPOS>MOLECULE
1n6c_SAM_1_INTS_M
   60     0    12     0     0
SMALL
NO_CHARGES


@<TRIPOS>ATOM
      1 O          10.2880   52.6165   21.7090 O.2       1 ALC1        0.0000 
      2 O           9.4100   51.7910   21.0770 O.2       9 ALL1        0.0000 
      3 O          11.1660   53.4420   22.3410 O.2       5 ALP1        0.0000 
      4 NZ          8.5320   50.9040   16.9400 N.4       3 LYC4        0.0000 
      5 NZ          8.8480   50.4360   18.6940 N.4      11 LYL4        0.0000 
      6 NZ          8.2160   51.3720   15.1860 N.4       7 LYP4        0.0000 
      7 N           9.9590   49.6425   18.9090 N.am      2 SEC2        0.0000 
      8 N           8.8480   50.4360   18.6940 N.am     10 SEL2        0.0000 
      9 N          11.0700   48.8490   19.1240 N.am      6 SEP2        0.0000 
     10 NZ          7.9945   51.7195   16.4915 N.4       3 LYC4        0.0000 
     11 NZ          7.7730   52.0670   17.7970 N.4      11 LYL4        0.0000 
     12 N           7.9945   51.7195   16.4915 N.am      2 SEC2        0.0000 
     13 N           7.7730   52.0670   17.7970 N.am     10 SEL2        0.0000 
     14 N           8.2160   51.3720   15.1860 N.am      6 SEP2        0.0000 
     15 CA         10.8770   55.3820   21.7460 C.3       4 GLC5        0.0000 
     16 CA          9.1480   55.0790   20.5250 C.3      12 GLL5        0.0000 
     17 CA         12.6060   55.6850   22.9670 C.3       8 GLP5        0.0000 
     18 CA          5.1335   57.6320   20.1780 C.3       4 GLC5        0.0000 
     19 CA          7.2530   57.0440   20.5880 C.3      12 GLL5        0.0000 
     20 CA          3.0140   58.2200   19.7680 C.3       8 GLP5        0.0000 
     21 CA          7.8465   57.7755   18.6135 C.3       4 GLC5        0.0000 
     22 CA          8.4400   58.5070   16.6390 C.3       8 GLP5        0.0000 
     23 CA          8.3165   57.4850   22.4125 C.3       4 GLC5        0.0000 
     24 CA          9.3800   57.9260   24.2370 C.3       8 GLP5        0.0000 
     25 CA          7.4915   56.3835   23.8020 C.3       4 GLC5        0.0000 
     26 CA          6.6590   55.0310   22.4890 C.3      12 GLL5        0.0000 
     27 CA          8.3240   57.7360   25.1150 C.3       8 GLP5        0.0000 
     28 CA          6.5770   54.2225   26.0875 C.3       4 GLC5        0.0000 
     29 CA          6.0050   53.4060   24.4490 C.3      12 GLL5        0.0000 
     30 CA          7.1490   55.0390   27.7260 C.3       8 GLP5        0.0000 
     31 N          11.5895   55.4440   25.5040 N.am      2 SEC2        0.0000 
     32 N          10.7140   54.4470   25.7540 N.am     10 SEL2        0.0000 
     33 N          12.4650   56.4410   25.2540 N.am      6 SEP2        0.0000 
     34 CA         11.9250   53.8070   24.9340 C.3       4 GLC5        0.0000 
     35 CA         10.6750   53.2930   26.5230 C.3      12 GLL5        0.0000 
     36 CA         13.1750   54.3210   23.3450 C.3       8 GLP5        0.0000 
     37 CA         11.0715   55.3510   26.8940 C.3       4 GLC5        0.0000 
     38 CA         11.4680   57.4090   27.2650 C.3       8 GLP5        0.0000 
     39 CA         13.0930   51.4330   27.5890 C.3       4 GLC5        0.0000 
     40 CA         11.4550   52.8190   27.6730 C.3      12 GLL5        0.0000 
     41 CA         14.7310   50.0470   27.5050 C.3       8 GLP5        0.0000 
     42 O          13.4005   54.6535   27.7775 O.2       1 ALC1        0.0000 
     43 O          12.4530   53.5190   28.2270 O.2       9 ALL1        0.0000 
     44 O          14.3480   55.7880   27.3280 O.2       5 ALP1        0.0000 
     45 O          12.1770   52.4410   29.4865 O.2       1 ALC1        0.0000 
     46 O          11.9010   51.3630   30.7460 O.2       5 ALP1        0.0000 
     47 O          12.5505   53.4520   29.7255 O.2       1 ALC1        0.0000 
     48 O          12.6480   53.3850   31.2240 O.2       5 ALP1        0.0000 
     49 CA         11.0925   50.1660   26.3430 C.3       4 GLC5        0.0000 
     50 CA         10.1270   50.7940   27.7100 C.3      12 GLL5        0.0000 
     51 CA         12.0580   49.5380   24.9760 C.3       8 GLP5        0.0000 
     52 CA          8.5095   50.8255   29.1110 C.3       4 GLC5        0.0000 
     53 CA          6.8920   50.8570   30.5120 C.3       8 GLP5        0.0000 
     54 CA         10.0563   55.0198   18.5075 C.3       4 GLC5        0.0000 
     55 CA         10.8930   55.5960   16.9290 C.3       8 GLP5        0.0000 
     56 CA          6.9315   52.9608   26.3940 C.3       4 GLC5        0.0000 
     57 CA          7.9510   52.2610   24.3710 C.3      12 GLL5        0.0000 
     58 CA          6.6560   53.8380   28.2520 C.3       8 GLP5        0.0000 
     59 CA         11.2100   51.1367   25.7815 C.3       4 GLC5        0.0000 
     60 CA          9.6590   52.4150   26.0760 C.3      12 GLL5        0.0000 
@<TRIPOS>BOND
@<TRIPOS>SUBSTRUCTURE
     1 ALC1        1 GROUP        1 X    ALC  0     ROOT ALC X 1
     2 SEC2        7 GROUP        1 X    SEC  0     **** SEC X 2
     3 LYC4        4 GROUP        1 X    LYC  0     **** LYC X 4
     4 GLC5       15 GROUP        1 X    GLC  0     **** GLC X 6
     5 ALP1        3 GROUP        1 Y    ALP  0     ROOT ALP Y 8
     6 SEP2        9 GROUP        1 Y    SEP  0     **** SEP Y 9
     7 LYP4        6 GROUP        1 Y    LYP  0     **** LYP Y 11
     8 GLP5       17 GROUP        1 Y    GLP  0     **** GLP Y 13
     9 ALL1        2 GROUP        1 Z    ALL  0     ROOT ALL Z 15
    10 SEL2        8 GROUP        1 Z    SEL  0     **** SEL Z 16
    11 LYL4        5 GROUP        1 Z    LYL  0     **** LYL Z 18
    12 GLL5       16 GROUP        1 Z    GLL  0     **** GLL Z 20
@<TRIPOS>SET

