#    Name: 1n6c_SAM_1_ligand
#    Modification time : Mon Mar 24 17:45:06 2014

@<TRIPOS>MOLECULE
1n6c_SAM_1_ligand
   50    52     1     0     0
SMALL
NO_CHARGES


@<TRIPOS>ATOM
      1 N           9.4100   51.7910   21.0770 N.4       1 SAM402      0.0000 
      2 CA          8.6360   52.4320   20.0140 C.3       1 SAM402      0.0000 
      3 C           8.4080   51.5910   18.7640 C.2       1 SAM402      0.0000 
      4 O           8.8480   50.4360   18.6940 O.co2     1 SAM402      0.0000 
      5 OXT         7.7730   52.0670   17.7970 O.co2     1 SAM402      0.0000 
      6 CB          9.2910   53.8080   19.6470 C.3       1 SAM402      0.0000 
      7 CG          9.1480   55.0790   20.5250 C.3       1 SAM402      0.0000 
      8 SD          7.2990   55.2500   20.7410 S.3       1 SAM402      0.0000 
      9 CE          7.2530   57.0440   20.5880 C.3       1 SAM402      0.0000 
     10 C5'         6.6590   55.0310   22.4890 C.3       1 SAM402      0.0000 
     11 C4'         6.5290   53.6550   23.0380 C.3       1 SAM402      0.0000 
     12 O4'         7.7940   52.9590   23.1010 O.3       1 SAM402      0.0000 
     13 C3'         6.0050   53.4060   24.4490 C.3       1 SAM402      0.0000 
     14 O3'         4.7200   53.9430   24.5530 O.3       1 SAM402      0.0000 
     15 C2'         6.4630   51.9060   24.7010 C.3       1 SAM402      0.0000 
     16 O2'         5.4230   51.1970   24.1770 O.3       1 SAM402      0.0000 
     17 C1'         7.9510   52.2610   24.3710 C.3       1 SAM402      0.0000 
     18 N9          9.0390   53.0590   24.9650 N.pl3     1 SAM402      0.0000 
     19 C8          9.7670   54.2760   24.8780 C.2       1 SAM402      0.0000 
     20 N7         10.7140   54.4470   25.7540 N.2       1 SAM402      0.0000 
     21 C5         10.6750   53.2930   26.5230 C.ar      1 SAM402      0.0000 
     22 C6         11.4550   52.8190   27.6730 C.ar      1 SAM402      0.0000 
     23 N6         12.4530   53.5190   28.2270 N.pl3     1 SAM402      0.0000 
     24 N1         11.1460   51.5550   28.2400 N.ar      1 SAM402      0.0000 
     25 C2         10.1270   50.7940   27.7100 C.ar      1 SAM402      0.0000 
     26 N3          9.3250   51.1140   26.6440 N.ar      1 SAM402      0.0000 
     27 C4          9.6590   52.4150   26.0760 C.ar      1 SAM402      0.0000 
     28 H           7.6289   52.7023   20.4185 H         1 SAM402      0.0000 
     29 H           8.9449   54.0735   18.5942 H         1 SAM402      0.0000 
     30 H          10.4038   53.6182   19.4909 H         1 SAM402      0.0000 
     31 H           9.3779   55.9542   20.0372 H         1 SAM402      0.0000 
     32 H           9.4560   54.9540   21.4978 H         1 SAM402      0.0000 
     33 H           5.7092   55.5892   22.4157 H         1 SAM402      0.0000 
     34 H           7.3673   55.6792   23.0341 H         1 SAM402      0.0000 
     35 H           5.8805   53.0376   22.3660 H         1 SAM402      0.0000 
     36 H           6.7578   54.0187   25.0682 H         1 SAM402      0.0000 
     37 H           6.4276   51.9686   25.8531 H         1 SAM402      0.0000 
     38 H           8.4187   51.2675   23.9870 H         1 SAM402      0.0000 
     39 H           9.5171   54.9387   24.1510 H         1 SAM402      0.0000 
     40 H          12.9427   54.1438   27.6189 H         1 SAM402      0.0000 
     41 H          12.6192   53.3543   29.1992 H         1 SAM402      0.0000 
     42 H           9.9407   49.8402   28.1884 H         1 SAM402      0.0000 
     43 H           8.8874   51.7216   21.9267 H         1 SAM402      0.0000 
     44 H           9.6874   50.8634   20.8268 H         1 SAM402      0.0000 
     45 H          10.2448   52.2999   21.2871 H         1 SAM402      0.0000 
     46 H           7.9284   57.4846   21.1793 H         1 SAM402      0.0000 
     47 H           7.4435   57.3420   19.6526 H         1 SAM402      0.0000 
     48 H           6.3586   57.4152   20.8374 H         1 SAM402      0.0000 
     49 H           4.7471   54.5228   25.3673 H         1 SAM402      0.0000 
     50 H           4.6408   51.8188   24.2152 H         1 SAM402      0.0000 
@<TRIPOS>BOND
     1    2    1 1    
     2   43    1 1    
     3   44    1 1    
     4   45    1 1    
     5    3    2 1    
     6    6    2 1    
     7   28    2 1    
     8    4    3 ar   
     9    5    3 ar   
    10    7    6 1    
    11   29    6 1    
    12   30    6 1    
    13    8    7 1    
    14   31    7 1    
    15   32    7 1    
    16    9    8 1    
    17   10    8 1    
    18   46    9 1    
    19   47    9 1    
    20   48    9 1    
    21   11   10 1    
    22   33   10 1    
    23   34   10 1    
    24   12   11 1    
    25   13   11 1    
    26   35   11 1    
    27   17   12 1    
    28   14   13 1    
    29   15   13 1    
    30   36   13 1    
    31   49   14 1    
    32   16   15 1    
    33   17   15 1    
    34   37   15 1    
    35   50   16 1    
    36   18   17 1    
    37   38   17 1    
    38   19   18 1    
    39   27   18 1    
    40   20   19 2    
    41   39   19 1    
    42   21   20 1    
    43   22   21 ar   
    44   27   21 ar   
    45   23   22 1    
    46   24   22 ar   
    47   40   23 1    
    48   41   23 1    
    49   25   24 ar   
    50   26   25 ar   
    51   42   25 1    
    52   27   26 ar   
@<TRIPOS>SUBSTRUCTURE
     1 SAM402      1 GROUP   
@<TRIPOS>SET

