#    Name: 1hsk_FAD_1_INTS_M
#    Modification time : Tue Mar 25 05:45:27 2014

@<TRIPOS>MOLECULE
1hsk_FAD_1_INTS_M
  114     0     9     0     0
SMALL
NO_CHARGES


@<TRIPOS>ATOM
      1 N         182.6985  145.8655  168.3420 N.am      2 SEC2        0.0000 
      2 N         182.9790  146.3480  167.0270 N.am      8 SEL2        0.0000 
      3 N         182.4180  145.3830  169.6570 N.am      5 SEP2        0.0000 
      4 N         183.1500  145.2305  166.2705 N.am      2 SEC2        0.0000 
      5 N         183.3210  144.1130  165.5140 N.am      5 SEP2        0.0000 
      6 N         183.3145  147.5510  163.3640 N.am      2 SEC2        0.0000 
      7 N         183.2450  147.3900  164.7190 N.am      8 SEL2        0.0000 
      8 N         183.3840  147.7120  162.0090 N.am      5 SEP2        0.0000 
      9 CA        182.5780  150.0405  164.0325 C.3       3 GLC5        0.0000 
     10 CA        182.7250  150.1020  166.1230 C.3       9 GLL5        0.0000 
     11 CA        182.4310  149.9790  161.9420 C.3       6 GLP5        0.0000 
     12 CA        184.4715  149.0465  166.1565 C.3       3 GLC5        0.0000 
     13 CA        186.2180  147.9910  166.1900 C.3       6 GLP5        0.0000 
     14 CA        182.4740  153.1320  167.1005 C.3       3 GLC5        0.0000 
     15 CA        182.9630  151.3050  167.0260 C.3       9 GLL5        0.0000 
     16 CA        181.9850  154.9590  167.1750 C.3       6 GLP5        0.0000 
     17 CA        183.4670  153.3225  168.0610 C.3       3 GLC5        0.0000 
     18 CA        184.2540  151.3310  167.8090 C.3       9 GLL5        0.0000 
     19 CA        182.6800  155.3140  168.3130 C.3       6 GLP5        0.0000 
     20 O         184.7235  149.9785  170.8880 O.2       1 ALC1        0.0000 
     21 O         184.6990  151.1690  170.2690 O.2       7 ALL1        0.0000 
     22 O         184.7480  148.7880  171.5070 O.2       4 ALP1        0.0000 
     23 CA        181.6590  152.8255  169.5205 C.3       3 GLC5        0.0000 
     24 CA        182.4460  151.1470  169.3640 C.3       9 GLL5        0.0000 
     25 CA        180.8720  154.5040  169.6770 C.3       6 GLP5        0.0000 
     26 CA        180.2845  147.9000  173.7330 C.3       3 GLC5        0.0000 
     27 CA        179.4490  149.6250  172.8080 C.3       9 GLL5        0.0000 
     28 CA        181.1200  146.1750  174.6580 C.3       6 GLP5        0.0000 
     29 CA        179.9790  149.6415  174.8905 C.3       3 GLC5        0.0000 
     30 CA        180.5090  149.6580  176.9730 C.3       6 GLP5        0.0000 
     31 CA        177.6920  150.3670  173.4665 C.3       3 GLC5        0.0000 
     32 CA        175.9350  151.1090  174.1250 C.3       6 GLP5        0.0000 
     33 O         177.7460  148.6650  174.5350 O.2       1 ALC1        0.0000 
     34 O         178.6660  148.6760  173.3180 O.2       7 ALL1        0.0000 
     35 O         176.8260  148.6540  175.7520 O.2       4 ALP1        0.0000 
     36 N         178.7135  151.0790  174.5855 N.am      2 SEC2        0.0000 
     37 N         179.5690  150.8180  173.5120 N.am      8 SEL2        0.0000 
     38 N         177.8580  151.3400  175.6590 N.am      5 SEP2        0.0000 
     39 CA        181.9980  150.7030  173.6020 C.3       3 GLC5        0.0000 
     40 CA        180.3820  151.7910  173.0150 C.3       9 GLL5        0.0000 
     41 CA        183.6140  149.6150  174.1890 C.3       6 GLP5        0.0000 
     42 CA        179.6800  153.4785  172.8110 C.3       3 GLC5        0.0000 
     43 CA        178.9780  155.1660  172.6070 C.3       6 GLP5        0.0000 
     44 CA        180.1430  151.9355  174.8790 C.3       3 GLC5        0.0000 
     45 CA        179.9040  152.0800  176.7430 C.3       6 GLP5        0.0000 
     46 CA        178.2795  152.1480  173.3020 C.3       3 GLC5        0.0000 
     47 CA        176.1770  152.5050  173.5890 C.3       6 GLP5        0.0000 
     48 CA        179.8545  151.9955  169.9335 C.3       3 GLC5        0.0000 
     49 CA        180.9100  150.5300  171.2140 C.3       9 GLL5        0.0000 
     50 CA        178.7990  153.4610  168.6530 C.3       6 GLP5        0.0000 
     51 N         174.0455  152.8960  159.5440 N.am      2 SEC2        0.0000 
     52 N         175.3740  152.4130  159.2600 N.am      8 SEL2        0.0000 
     53 N         172.7170  153.3790  159.8280 N.am      5 SEP2        0.0000 
     54 O         173.8920  151.9995  157.3460 O.2       1 ALC1        0.0000 
     55 O         174.8890  151.1440  157.5170 O.2       7 ALL1        0.0000 
     56 O         172.8950  152.8550  157.1750 O.2       4 ALP1        0.0000 
     57 N         173.5485  148.5445  155.3265 N.am      2 SEC2        0.0000 
     58 N         174.3470  149.7680  155.8020 N.am      8 SEL2        0.0000 
     59 N         172.7500  147.3210  154.8510 N.am      5 SEP2        0.0000 
     60 N         175.7575  147.5180  154.9760 N.am      2 SEC2        0.0000 
     61 N         176.7370  148.2510  156.0310 N.am      8 SEL2        0.0000 
     62 N         174.7780  146.7850  153.9210 N.am      5 SEP2        0.0000 
     63 CA        178.3785  143.4590  153.6325 C.3       3 GLC5        0.0000 
     64 CA        179.7010  144.6590  154.4430 C.3       9 GLL5        0.0000 
     65 CA        177.0560  142.2590  152.8220 C.3       6 GLP5        0.0000 
     66 CA        180.4275  145.7455  153.4140 C.3       3 GLC5        0.0000 
     67 CA        181.1540  146.8320  152.3850 C.3       6 GLP5        0.0000 
     68 CA        181.8380  143.5625  157.0080 C.3       3 GLC5        0.0000 
     69 CA        181.4780  145.1420  156.6940 C.3       9 GLL5        0.0000 
     70 CA        182.1980  141.9830  157.3220 C.3       6 GLP5        0.0000 
     71 CA        183.5150  145.9970  156.5690 C.3       3 GLC5        0.0000 
     72 CA        185.5520  146.8520  156.4440 C.3       6 GLP5        0.0000 
     73 CA        180.1480  146.7980  160.8950 C.3       3 GLC5        0.0000 
     74 CA        179.0380  148.6020  160.5610 C.3       9 GLL5        0.0000 
     75 CA        181.2580  144.9940  161.2290 C.3       6 GLP5        0.0000 
     76 O         179.3235  146.6155  161.1165 O.2       1 ALC1        0.0000 
     77 O         178.3270  147.3890  160.3730 O.2       7 ALL1        0.0000 
     78 O         180.3200  145.8420  161.8600 O.2       4 ALP1        0.0000 
     79 CA        180.8205  149.1405  162.8530 C.3       3 GLC5        0.0000 
     80 CA        179.2100  148.3020  163.7640 C.3       9 GLL5        0.0000 
     81 CA        178.3040  146.2735  163.8295 C.3       3 GLC5        0.0000 
     82 CA        177.3980  144.2450  163.8950 C.3       6 GLP5        0.0000 
     83 CA        178.5575  148.9410  165.6760 C.3       3 GLC5        0.0000 
     84 CA        177.9050  149.5800  167.5880 C.3       6 GLP5        0.0000 
     85 N         180.3105  144.6245  166.8125 N.am      2 SEC2        0.0000 
     86 N         179.3840  145.7530  166.5220 N.am      8 SEL2        0.0000 
     87 N         181.2370  143.4960  167.1030 N.am      5 SEP2        0.0000 
     88 N         178.0320  145.2430  166.3235 N.am      2 SEC2        0.0000 
     89 N         176.6800  144.7330  166.1250 N.am      5 SEP2        0.0000 
     90 N         178.5315  145.6335  167.5545 N.am      2 SEC2        0.0000 
     91 N         177.6790  145.5140  168.5870 N.am      5 SEP2        0.0000 
     92 N         181.8120  145.4695  163.6150 N.am      2 SEC2        0.0000 
     93 N         180.6030  145.7330  164.3040 N.am      8 SEL2        0.0000 
     94 N         183.0210  145.2060  162.9260 N.am      5 SEP2        0.0000 
     95 N         180.4615  145.7875  163.0820 N.am      2 SEC2        0.0000 
     96 N         180.3200  145.8420  161.8600 N.am      5 SEP2        0.0000 
     97 CA        185.2707  150.9260  166.2403 C.3       3 GLC5        0.0000 
     98 CA        186.9330  150.5340  165.0630 C.3       6 GLP5        0.0000 
     99 CA        177.8973  149.1885  171.4552 C.3       3 GLC5        0.0000 
    100 CA        180.1860  149.4370  171.5270 C.3       9 GLL5        0.0000 
    101 CA        175.9770  148.8460  170.7430 C.3       6 GLP5        0.0000 
    102 CA        181.9889  149.8227  172.9399 C.3       3 GLC5        0.0000 
    103 CA        178.4980  144.6385  156.5402 C.3       3 GLC5        0.0000 
    104 CA        179.4090  145.7470  155.4500 C.3       9 GLL5        0.0000 
    105 CA        177.4410  144.0740  158.1340 C.3       6 GLP5        0.0000 
    106 CA        178.9215  145.2103  157.5809 C.3       3 GLC5        0.0000 
    107 CA        180.2700  146.0460  156.5690 C.3       9 GLL5        0.0000 
    108 CA        181.5885  147.6688  156.0144 C.3       3 GLC5        0.0000 
    109 CA        182.7750  148.9910  155.0010 C.3       6 GLP5        0.0000 
    110 CA        177.4321  146.3215  157.3773 C.3       3 GLC5        0.0000 
    111 CA        178.7540  147.8880  157.2400 C.3       9 GLL5        0.0000 
    112 CA        176.4530  145.1810  158.2710 C.3       6 GLP5        0.0000 
    113 CA        180.5933  149.6156  161.3573 C.3       3 GLC5        0.0000 
    114 CA        179.2740  149.4190  159.2550 C.3       9 GLL5        0.0000 
@<TRIPOS>BOND
@<TRIPOS>SUBSTRUCTURE
     1 ALC1       20 GROUP        1 X    ALC  0     ROOT ALC X 1
     2 SEC2        1 GROUP        1 X    SEC  0     **** SEC X 2
     3 GLC5        9 GROUP        1 X    GLC  0     **** GLC X 6
     4 ALP1       22 GROUP        1 Y    ALP  0     ROOT ALP Y 8
     5 SEP2        3 GROUP        1 Y    SEP  0     **** SEP Y 9
     6 GLP5       11 GROUP        1 Y    GLP  0     **** GLP Y 13
     7 ALL1       21 GROUP        1 Z    ALL  0     ROOT ALL Z 15
     8 SEL2        2 GROUP        1 Z    SEL  0     **** SEL Z 16
     9 GLL5       10 GROUP        1 Z    GLL  0     **** GLL Z 20
@<TRIPOS>SET

