#    Name: 1hsk_FAD_1_ligand
#    Modification time : Tue Mar 25 05:45:27 2014

@<TRIPOS>MOLECULE
1hsk_FAD_1_ligand
   84    89     1     0     0
SMALL
NO_CHARGES


@<TRIPOS>ATOM
      1 PA        182.6360  147.4950  166.1010 P.3       1 FAD401      0.0000 
      2 O1A       182.9790  146.3480  167.0270 O.co2     1 FAD401      0.0000 
      3 O2A       183.2450  147.3900  164.7190 O.co2     1 FAD401      0.0000 
      4 O5B       183.0470  148.8750  166.7770 O.3       1 FAD401      0.0000 
      5 C5B       182.7250  150.1020  166.1230 C.3       1 FAD401      0.0000 
      6 C4B       182.9630  151.3050  167.0260 C.3       1 FAD401      0.0000 
      7 O4B       181.9220  151.3260  168.0460 O.3       1 FAD401      0.0000 
      8 C3B       184.2540  151.3310  167.8090 C.3       1 FAD401      0.0000 
      9 O3B       184.6710  152.7320  167.8910 O.3       1 FAD401      0.0000 
     10 C2B       183.8920  150.7270  169.1780 C.3       1 FAD401      0.0000 
     11 O2B       184.6990  151.1690  170.2690 O.3       1 FAD401      0.0000 
     12 C1B       182.4460  151.1470  169.3640 C.3       1 FAD401      0.0000 
     13 N9A       181.5170  150.2480  170.0250 N.pl3     1 FAD401      0.0000 
     14 C8A       181.3520  148.9880  169.5130 C.2       1 FAD401      0.0000 
     15 N7A       180.4280  148.4050  170.4750 N.2       1 FAD401      0.0000 
     16 C5A       180.1860  149.4370  171.5270 C.ar      1 FAD401      0.0000 
     17 C6A       179.4490  149.6250  172.8080 C.ar      1 FAD401      0.0000 
     18 N6A       178.6660  148.6760  173.3180 N.pl3     1 FAD401      0.0000 
     19 N1A       179.5690  150.8180  173.5120 N.ar      1 FAD401      0.0000 
     20 C2A       180.3820  151.7910  173.0150 C.ar      1 FAD401      0.0000 
     21 N3A       181.0530  151.7500  171.8960 N.ar      1 FAD401      0.0000 
     22 C4A       180.9100  150.5300  171.2140 C.ar      1 FAD401      0.0000 
     23 N1        176.8580  150.7920  158.7540 N.2       1 FAD401      0.0000 
     24 C2        175.6910  151.4960  158.5570 C.2       1 FAD401      0.0000 
     25 O2        175.3740  152.4130  159.2600 O.2       1 FAD401      0.0000 
     26 N3        174.8890  151.1440  157.5170 N.am      1 FAD401      0.0000 
     27 C4        175.1180  150.1030  156.6910 C.2       1 FAD401      0.0000 
     28 O4        174.3470  149.7680  155.8020 O.2       1 FAD401      0.0000 
     29 C4X       176.4020  149.3070  156.8600 C.2       1 FAD401      0.0000 
     30 N5        176.7370  148.2510  156.0310 N.2       1 FAD401      0.0000 
     31 C5X       177.9110  147.5560  156.1760 C.ar      1 FAD401      0.0000 
     32 C6        178.2260  146.5160  155.2780 C.ar      1 FAD401      0.0000 
     33 C7        179.4090  145.7470  155.4500 C.ar      1 FAD401      0.0000 
     34 C7M       179.7010  144.6590  154.4430 C.3       1 FAD401      0.0000 
     35 C8        180.2700  146.0460  156.5690 C.ar      1 FAD401      0.0000 
     36 C8M       181.4780  145.1420  156.6940 C.3       1 FAD401      0.0000 
     37 C9        179.9300  147.0990  157.4240 C.ar      1 FAD401      0.0000 
     38 C9A       178.7540  147.8880  157.2400 C.ar      1 FAD401      0.0000 
     39 N10       178.4030  148.9780  158.1090 N.pl3     1 FAD401      0.0000 
     40 C10       177.2420  149.7360  157.9680 C.2       1 FAD401      0.0000 
     41 C1'       179.2740  149.4190  159.2550 C.3       1 FAD401      0.0000 
     42 C2'       179.0380  148.6020  160.5610 C.3       1 FAD401      0.0000 
     43 O2'       178.3270  147.3890  160.3730 O.3       1 FAD401      0.0000 
     44 C3'       178.3550  149.4940  161.6370 C.3       1 FAD401      0.0000 
     45 O3'       179.1080  150.6490  161.9590 O.3       1 FAD401      0.0000 
     46 C4'       177.9850  148.6900  162.9150 C.3       1 FAD401      0.0000 
     47 O4'       177.0200  149.3590  163.7050 O.3       1 FAD401      0.0000 
     48 C5'       179.2100  148.3020  163.7640 C.3       1 FAD401      0.0000 
     49 O5'       178.7960  147.3630  164.7690 O.3       1 FAD401      0.0000 
     50 P         179.9740  146.5800  165.3970 P.3       1 FAD401      0.0000 
     51 O1P       179.3840  145.7530  166.5220 O.co2     1 FAD401      0.0000 
     52 O2P       180.6030  145.7330  164.3040 O.co2     1 FAD401      0.0000 
     53 O3P       181.0900  147.6120  165.9910 O.3       1 FAD401      0.0000 
     54 H         181.6662  150.1256  165.8058 H         1 FAD401      0.0000 
     55 H         183.3305  150.2443  165.2091 H         1 FAD401      0.0000 
     56 H         182.8862  152.2151  166.4461 H         1 FAD401      0.0000 
     57 H         184.9578  150.7206  167.3270 H         1 FAD401      0.0000 
     58 H         183.8904  149.6518  169.0597 H         1 FAD401      0.0000 
     59 H         182.4353  152.1278  169.8531 H         1 FAD401      0.0000 
     60 H         181.6927  148.5814  168.7906 H         1 FAD401      0.0000 
     61 H         178.2276  148.8894  174.1911 H         1 FAD401      0.0000 
     62 H         178.5870  147.8355  172.7819 H         1 FAD401      0.0000 
     63 H         180.4670  152.6893  173.6320 H         1 FAD401      0.0000 
     64 H         174.0136  151.7391  157.3452 H         1 FAD401      0.0000 
     65 H         177.6010  146.3089  154.4940 H         1 FAD401      0.0000 
     66 H         180.5484  147.3258  158.2273 H         1 FAD401      0.0000 
     67 H         179.0897  150.4786  159.4813 H         1 FAD401      0.0000 
     68 H         180.3339  149.3202  158.9814 H         1 FAD401      0.0000 
     69 H         180.0579  148.3884  160.9700 H         1 FAD401      0.0000 
     70 H         177.3719  149.8032  161.1910 H         1 FAD401      0.0000 
     71 H         177.5510  147.7228  162.5486 H         1 FAD401      0.0000 
     72 H         179.6118  149.2152  164.2023 H         1 FAD401      0.0000 
     73 H         179.9563  147.8766  163.0935 H         1 FAD401      0.0000 
     74 H         179.7910  145.0248  153.5167 H         1 FAD401      0.0000 
     75 H         180.5524  144.1781  154.6522 H         1 FAD401      0.0000 
     76 H         178.9749  143.9719  154.4176 H         1 FAD401      0.0000 
     77 H         182.0621  145.1885  155.8836 H         1 FAD401      0.0000 
     78 H         182.0462  145.3879  157.4793 H         1 FAD401      0.0000 
     79 H         181.2147  144.1844  156.8110 H         1 FAD401      0.0000 
     80 H         185.0898  152.8248  168.7943 H         1 FAD401      0.0000 
     81 H         184.8453  150.3538  170.8295 H         1 FAD401      0.0000 
     82 H         178.8731  146.6939  160.8405 H         1 FAD401      0.0000 
     83 H         178.5762  151.4141  161.5959 H         1 FAD401      0.0000 
     84 H         176.1465  148.9410  163.4555 H         1 FAD401      0.0000 
@<TRIPOS>BOND
     1    2    1 ar   
     2    3    1 ar   
     3    4    1 1    
     4   53    1 1    
     5    5    4 1    
     6    6    5 1    
     7   54    5 1    
     8   55    5 1    
     9    7    6 1    
    10    8    6 1    
    11   56    6 1    
    12   12    7 1    
    13    9    8 1    
    14   10    8 1    
    15   57    8 1    
    16   80    9 1    
    17   11   10 1    
    18   12   10 1    
    19   58   10 1    
    20   81   11 1    
    21   13   12 1    
    22   59   12 1    
    23   14   13 1    
    24   22   13 1    
    25   15   14 2    
    26   60   14 1    
    27   16   15 1    
    28   17   16 ar   
    29   22   16 ar   
    30   18   17 1    
    31   19   17 ar   
    32   61   18 1    
    33   62   18 1    
    34   20   19 ar   
    35   21   20 ar   
    36   63   20 1    
    37   22   21 ar   
    38   24   23 1    
    39   40   23 2    
    40   25   24 2    
    41   26   24 am   
    42   27   26 am   
    43   64   26 1    
    44   28   27 2    
    45   29   27 1    
    46   30   29 2    
    47   40   29 1    
    48   31   30 1    
    49   32   31 ar   
    50   38   31 ar   
    51   33   32 ar   
    52   65   32 1    
    53   34   33 1    
    54   35   33 ar   
    55   74   34 1    
    56   75   34 1    
    57   76   34 1    
    58   36   35 1    
    59   37   35 ar   
    60   77   36 1    
    61   78   36 1    
    62   79   36 1    
    63   38   37 ar   
    64   66   37 1    
    65   39   38 1    
    66   40   39 1    
    67   41   39 1    
    68   42   41 1    
    69   67   41 1    
    70   68   41 1    
    71   43   42 1    
    72   44   42 1    
    73   69   42 1    
    74   82   43 1    
    75   45   44 1    
    76   46   44 1    
    77   70   44 1    
    78   83   45 1    
    79   47   46 1    
    80   48   46 1    
    81   71   46 1    
    82   84   47 1    
    83   49   48 1    
    84   72   48 1    
    85   73   48 1    
    86   50   49 1    
    87   51   50 ar   
    88   52   50 ar   
    89   53   50 1    
@<TRIPOS>SUBSTRUCTURE
     1 FAD401      1 GROUP   
@<TRIPOS>SET

