#    Name: 3u4l_ATP_1_INTS_M
#    Modification time : Mon Mar 24 21:37:01 2014

@<TRIPOS>MOLECULE
3u4l_ATP_1_INTS_M
   54     0     9     0     0
SMALL
NO_CHARGES


@<TRIPOS>ATOM
      1 N         -10.9850  -15.2905   27.8205 N.am      2 SEC2        0.0000 
      2 N         -11.4140  -15.1090   26.5400 N.am      8 SEL2        0.0000 
      3 N         -10.5560  -15.4720   29.1010 N.am      5 SEP2        0.0000 
      4 N         -12.3800  -15.5935   27.3650 N.am      2 SEC2        0.0000 
      5 N         -13.3460  -16.0780   28.1900 N.am      5 SEP2        0.0000 
      6 N         -10.5375  -18.4225   25.2325 N.am      2 SEC2        0.0000 
      7 N         -10.7000  -17.2280   25.5570 N.am      8 SEL2        0.0000 
      8 N         -10.3750  -19.6170   24.9080 N.am      5 SEP2        0.0000 
      9 N         -11.6970  -18.3855   25.8185 N.am      2 SEC2        0.0000 
     10 N         -12.6940  -19.5430   26.0800 N.am      5 SEP2        0.0000 
     11 N          -8.6225  -17.1060   29.3335 N.am      2 SEC2        0.0000 
     12 N          -7.8090  -16.7730   28.2190 N.am      8 SEL2        0.0000 
     13 N          -9.4360  -17.4390   30.4480 N.am      5 SEP2        0.0000 
     14 N          -7.2610  -16.9370   29.4490 N.am      2 SEC2        0.0000 
     15 N          -6.7130  -17.1010   30.6790 N.am      5 SEP2        0.0000 
     16 N          -9.7460  -15.4740   27.6875 N.am      2 SEC2        0.0000 
     17 N          -8.9360  -15.4760   26.2740 N.am      8 SEL2        0.0000 
     18 N          -5.4870  -18.1060   22.6900 N.am      2 SEC2        0.0000 
     19 N          -6.2640  -17.3230   23.6270 N.am      8 SEL2        0.0000 
     20 N          -4.7100  -18.8890   21.7530 N.am      5 SEP2        0.0000 
     21 N          -5.4675  -15.4540   26.8345 N.am      2 SEC2        0.0000 
     22 N          -6.5310  -16.5550   26.0320 N.am      8 SEL2        0.0000 
     23 N          -4.4040  -14.3530   27.6370 N.am      5 SEP2        0.0000 
     24 O          -8.2120  -22.5500   27.3965 O.2       1 ALC1        0.0000 
     25 O          -7.5800  -23.2870   26.1090 O.2       7 ALL1        0.0000 
     26 O          -8.8440  -21.8130   28.6840 O.2       4 ALP1        0.0000 
     27 N          -6.5240  -25.9220   25.5105 N.am      2 SEC2        0.0000 
     28 N          -5.5730  -24.8920   26.0280 N.am      8 SEL2        0.0000 
     29 N          -7.4750  -26.9520   24.9930 N.am      5 SEP2        0.0000 
     30 O          -4.3575  -25.6095   26.3010 O.2       1 ALC1        0.0000 
     31 O          -5.5730  -24.8920   26.0280 O.2       7 ALL1        0.0000 
     32 O          -3.1420  -26.3270   26.5740 O.2       4 ALP1        0.0000 
     33 CA         -4.6675  -21.7980   23.0985 C.3       3 GLC5        0.0000 
     34 CA         -5.2130  -23.3890   24.1630 C.3       9 GLL5        0.0000 
     35 CA         -4.1220  -20.2070   22.0340 C.3       6 GLP5        0.0000 
     36 CA         -5.9615  -22.8670   22.2420 C.3       3 GLC5        0.0000 
     37 CA         -6.7100  -22.3450   20.3210 C.3       6 GLP5        0.0000 
     38 N          -0.7455  -22.8310   24.4065 N.am      2 SEC2        0.0000 
     39 N          -1.6360  -23.8130   23.5270 N.am      8 SEL2        0.0000 
     40 N           0.1450  -21.8490   25.2860 N.am      5 SEP2        0.0000 
     41 CA         -3.1285  -26.8850   22.7760 C.3       3 GLC5        0.0000 
     42 CA         -3.7290  -26.2950   20.9700 C.3       9 GLL5        0.0000 
     43 CA         -2.5280  -27.4750   24.5820 C.3       6 GLP5        0.0000 
     44 CA         -2.6600  -24.6775   20.0420 C.3       3 GLC5        0.0000 
     45 CA         -1.5910  -23.0600   19.1140 C.3       6 GLP5        0.0000 
     46 CA         -7.5353  -19.6900   24.2598 C.3       3 GLC5        0.0000 
     47 CA         -6.3330  -21.5120   25.0520 C.3       9 GLL5        0.0000 
     48 CA         -9.0850  -18.5080   23.2400 C.3       6 GLP5        0.0000 
     49 CA         -5.0537  -20.5395   23.6567 C.3       3 GLC5        0.0000 
     50 CA         -7.9576  -20.9925   26.4159 C.3       3 GLC5        0.0000 
     51 CA         -9.7620  -20.2510   27.1340 C.3       6 GLP5        0.0000 
     52 CA         -2.6174  -26.1866   23.4950 C.3       3 GLC5        0.0000 
     53 CA         -2.1130  -24.6850   22.6150 C.3       9 GLL5        0.0000 
     54 CA         -2.1489  -23.9791   20.7610 C.3       3 GLC5        0.0000 
@<TRIPOS>BOND
@<TRIPOS>SUBSTRUCTURE
     1 ALC1       24 GROUP        1 X    ALC  0     ROOT ALC X 1
     2 SEC2        1 GROUP        1 X    SEC  0     **** SEC X 2
     3 GLC5       33 GROUP        1 X    GLC  0     **** GLC X 6
     4 ALP1       26 GROUP        1 Y    ALP  0     ROOT ALP Y 8
     5 SEP2        3 GROUP        1 Y    SEP  0     **** SEP Y 9
     6 GLP5       35 GROUP        1 Y    GLP  0     **** GLP Y 13
     7 ALL1       25 GROUP        1 Z    ALL  0     ROOT ALL Z 15
     8 SEL2        2 GROUP        1 Z    SEL  0     **** SEL Z 16
     9 GLL5       34 GROUP        1 Z    GLL  0     **** GLL Z 20
@<TRIPOS>SET

