#    Name: 3u4l_ATP_1_ligand
#    Modification time : Mon Mar 24 21:37:01 2014

@<TRIPOS>MOLECULE
3u4l_ATP_1_ligand
   43    45     1     0     0
SMALL
NO_CHARGES


@<TRIPOS>ATOM
      1 PG        -10.4120  -15.7680   25.6250 P.3       1 ATP401      0.0000 
      2 O1G       -11.4140  -15.1090   26.5400 O.co2     1 ATP401      0.0000 
      3 O2G       -10.2040  -15.1400   24.2680 O.co2     1 ATP401      0.0000 
      4 O3G       -10.7000  -17.2280   25.5570 O.co2     1 ATP401      0.0000 
      5 PB         -7.9830  -16.7000   26.7090 P.3       1 ATP401      0.0000 
      6 O1B        -7.8090  -16.7730   28.2190 O.co2     1 ATP401      0.0000 
      7 O2B        -8.6210  -17.8420   26.0040 O.co2     1 ATP401      0.0000 
      8 O3B        -8.9360  -15.4760   26.2740 O.3       1 ATP401      0.0000 
      9 PA         -5.8670  -17.6570   25.0260 P.3       1 ATP401      0.0000 
     10 O1A        -4.3900  -17.7640   25.3350 O.co2     1 ATP401      0.0000 
     11 O2A        -6.2640  -17.3230   23.6270 O.co2     1 ATP401      0.0000 
     12 O3A        -6.5310  -16.5550   26.0320 O.3       1 ATP401      0.0000 
     13 O5'        -6.4850  -19.1000   25.2980 O.3       1 ATP401      0.0000 
     14 C5'        -5.6380  -20.2320   25.5070 C.3       1 ATP401      0.0000 
     15 C4'        -6.3330  -21.5120   25.0520 C.3       1 ATP401      0.0000 
     16 O4'        -5.5890  -22.0380   23.9530 O.3       1 ATP401      0.0000 
     17 C3'        -6.3210  -22.5960   26.1160 C.3       1 ATP401      0.0000 
     18 O3'        -7.5800  -23.2870   26.1090 O.3       1 ATP401      0.0000 
     19 C2'        -5.2370  -23.5530   25.6720 C.3       1 ATP401      0.0000 
     20 O2'        -5.5730  -24.8920   26.0280 O.3       1 ATP401      0.0000 
     21 C1'        -5.2130  -23.3890   24.1630 C.3       1 ATP401      0.0000 
     22 N9         -3.8620  -23.7420   23.6690 N.pl3     1 ATP401      0.0000 
     23 C8         -2.6970  -23.2560   24.1540 C.2       1 ATP401      0.0000 
     24 N7         -1.6360  -23.8130   23.5270 N.2       1 ATP401      0.0000 
     25 C5         -2.1130  -24.6850   22.6150 C.ar      1 ATP401      0.0000 
     26 C6         -1.5320  -25.6240   21.6030 C.ar      1 ATP401      0.0000 
     27 N6         -0.1920  -25.7060   21.4670 N.pl3     1 ATP401      0.0000 
     28 N1         -2.3810  -26.3760   20.8270 N.ar      1 ATP401      0.0000 
     29 C2         -3.7290  -26.2950   20.9700 C.ar      1 ATP401      0.0000 
     30 N3         -4.3190  -25.4580   21.8720 N.ar      1 ATP401      0.0000 
     31 C4         -3.5910  -24.6420   22.7070 C.ar      1 ATP401      0.0000 
     32 H          -5.3764  -20.3519   26.5681 H         1 ATP401      0.0000 
     33 H          -4.6973  -20.1436   24.9447 H         1 ATP401      0.0000 
     34 H          -7.3327  -21.2993   24.7714 H         1 ATP401      0.0000 
     35 H          -6.0701  -22.1815   27.0391 H         1 ATP401      0.0000 
     36 H          -4.3119  -23.2249   26.0625 H         1 ATP401      0.0000 
     37 H          -5.9491  -24.0678   23.7674 H         1 ATP401      0.0000 
     38 H          -2.6299  -22.5855   24.8689 H         1 ATP401      0.0000 
     39 H           0.1416  -26.3450   20.7739 H         1 ATP401      0.0000 
     40 H           0.3483  -25.1205   22.0714 H         1 ATP401      0.0000 
     41 H          -4.3444  -26.8994   20.3636 H         1 ATP401      0.0000 
     42 H          -8.0912  -22.9011   26.8770 H         1 ATP401      0.0000 
     43 H          -4.6956  -25.3476   26.1783 H         1 ATP401      0.0000 
@<TRIPOS>BOND
     1    2    1 ar   
     2    3    1 ar   
     3    4    1 ar   
     4    8    1 1    
     5    6    5 ar   
     6    7    5 ar   
     7    8    5 1    
     8   12    5 1    
     9   10    9 ar   
    10   11    9 ar   
    11   12    9 1    
    12   13    9 1    
    13   14   13 1    
    14   15   14 1    
    15   32   14 1    
    16   33   14 1    
    17   16   15 1    
    18   17   15 1    
    19   34   15 1    
    20   21   16 1    
    21   18   17 1    
    22   19   17 1    
    23   35   17 1    
    24   42   18 1    
    25   20   19 1    
    26   21   19 1    
    27   36   19 1    
    28   43   20 1    
    29   22   21 1    
    30   37   21 1    
    31   23   22 1    
    32   31   22 1    
    33   24   23 2    
    34   38   23 1    
    35   25   24 1    
    36   26   25 ar   
    37   31   25 ar   
    38   27   26 1    
    39   28   26 ar   
    40   39   27 1    
    41   40   27 1    
    42   29   28 ar   
    43   30   29 ar   
    44   41   29 1    
    45   31   30 ar   
@<TRIPOS>SUBSTRUCTURE
     1 ATP401      1 GROUP   
@<TRIPOS>SET

