#    Name: 2JJK_1_CAVITY_N1_6.mol2
#    Modification time : Mon Mar 10 22:57:29 2014

@<TRIPOS>MOLECULE
2JJK_1_CAVITY_N1_6.mol2
   54     0     3     0     0
SMALL
NO_CHARGES


@<TRIPOS>ATOM
      1 CA         29.2745    1.6295   44.6512 C.3       2 GLY6        0.0000 
      2 N          28.3401    1.0513   43.6302 N.2       1 ALA2        0.0000 
      3 N          29.4434    1.0626   42.6140 N.2       1 ALA2        0.0000 
      4 N          28.5090    0.4845   41.5930 N.2       1 ALA2        0.0000 
      5 N          27.5745   -0.0937   40.5719 N.2       1 ALA2        0.0000 
      6 N          28.6779   -0.0824   39.5558 N.2       1 ALA2        0.0000 
      7 CA         27.7434   -0.6605   38.5347 C.3       2 GLY6        0.0000 
      8 DU         29.7070   -3.6677   42.8476 H         3 CUB7        0.0000 
      9 CA         33.2143   -0.5379   44.4764 C.3       2 GLY6        0.0000 
     10 CA         30.0732   -1.1386   45.4876 C.3       2 GLY6        0.0000 
     11 N          31.1766   -1.1273   44.4715 N.2       1 ALA2        0.0000 
     12 N          29.1388   -1.7168   44.4666 N.2       1 ALA2        0.0000 
     13 DU         30.2421   -1.7055   43.4505 H         3 CUB7        0.0000 
     14 CA         31.3455   -1.6942   42.4343 C.3       2 GLY6        0.0000 
     15 N          28.2044   -2.2950   43.4455 N.2       1 ALA2        0.0000 
     16 DU         29.3077   -2.2837   42.4294 H         3 CUB7        0.0000 
     17 N          30.4110   -2.2724   41.4133 N.2       1 ALA2        0.0000 
     18 N          27.2699   -2.8731   42.4245 N.2       1 ALA2        0.0000 
     19 DU         28.3732   -2.8618   41.4083 H         3 CUB7        0.0000 
     20 N          29.4766   -2.8505   40.3922 N.2       1 ALA2        0.0000 
     21 CA         26.3355   -3.4513   41.4034 C.3       2 GLY6        0.0000 
     22 DU         27.4388   -3.4400   40.3873 H         3 CUB7        0.0000 
     23 CA         28.5421   -3.4287   39.3712 C.3       2 GLY6        0.0000 
     24 CA         30.6083    0.8236   46.0905 C.3       2 GLY6        0.0000 
     25 CA         28.5706    0.2341   46.0856 C.3       2 GLY6        0.0000 
     26 CA         29.6739    0.2454   45.0694 C.3       2 GLY6        0.0000 
     27 N          30.7772    0.2567   44.0533 N.2       1 ALA2        0.0000 
     28 N          28.7395   -0.3327   44.0484 N.2       1 ALA2        0.0000 
     29 N          29.8428   -0.3214   43.0322 N.2       1 ALA2        0.0000 
     30 N          28.9083   -0.8996   42.0112 N.2       1 ALA2        0.0000 
     31 N          26.8706   -1.4891   42.0063 N.2       1 ALA2        0.0000 
     32 N          27.9739   -1.4777   40.9901 N.2       1 ALA2        0.0000 
     33 N          27.0394   -2.0559   39.9691 N.2       1 ALA2        0.0000 
     34 N          28.1428   -2.0446   38.9529 N.2       1 ALA2        0.0000 
     35 N          29.9044   -0.5718   47.5248 N.2       1 ALA2        0.0000 
     36 N          31.0077   -0.5605   46.5087 N.2       1 ALA2        0.0000 
     37 CA         32.1110   -0.5492   45.4926 C.3       2 GLY6        0.0000 
     38 N          26.8374    2.4241   44.2281 N.2       1 ALA2        0.0000 
     39 N          27.9408    2.4354   43.2119 N.2       1 ALA2        0.0000 
     40 N          29.0441    2.4467   42.1958 N.2       1 ALA2        0.0000 
     41 N          27.0063    1.8572   42.1909 N.2       1 ALA2        0.0000 
     42 N          28.1096    1.8685   41.1747 N.2       1 ALA2        0.0000 
     43 CA         29.2130    1.8798   40.1586 C.3       2 GLY6        0.0000 
     44 N          27.1752    1.2904   40.1537 N.2       1 ALA2        0.0000 
     45 N          28.2785    1.3017   39.1375 N.2       1 ALA2        0.0000 
     46 N          29.3818    1.3130   38.1214 N.2       1 ALA2        0.0000 
     47 CA         26.4381    3.8081   43.8098 C.3       2 GLY6        0.0000 
     48 CA         27.5414    3.8194   42.7937 C.3       2 GLY6        0.0000 
     49 CA         25.5036    3.2300   42.7888 C.3       2 GLY6        0.0000 
     50 CA         26.6070    3.2413   41.7727 C.3       2 GLY6        0.0000 
     51 CA         27.7103    3.2526   40.7565 C.3       2 GLY6        0.0000 
     52 CA         28.8136    3.2639   39.7404 C.3       2 GLY6        0.0000 
     53 CA         27.8792    2.6857   38.7193 C.3       2 GLY6        0.0000 
     54 CA         28.9825    2.6970   37.7032 C.3       2 GLY6        0.0000 
@<TRIPOS>BOND
@<TRIPOS>SUBSTRUCTURE
     1 ALA2        2 GROUP   
     2 GLY6        1 GROUP   
     3 CUB7        8 GROUP   
@<TRIPOS>SET

