#    Name: 2jjk_R15_1_INTS_M
#    Modification time : Tue Mar 25 20:58:18 2014

@<TRIPOS>MOLECULE
2jjk_R15_1_INTS_M
  107     0     9     0     0
SMALL
NO_CHARGES


@<TRIPOS>ATOM
      1 O          24.9420    0.7990   44.4525 O.2       1 ALC1        0.0000 
      2 O          23.9170    2.0640   44.7520 O.2       7 ALL1        0.0000 
      3 O          25.9670   -0.4660   44.1530 O.2       4 ALP1        0.0000 
      4 O          31.6095    0.7300   38.3075 O.2       1 ALC1        0.0000 
      5 O          31.9390    2.0130   37.2840 O.2       7 ALL1        0.0000 
      6 O          31.2800   -0.5530   39.3310 O.2       4 ALP1        0.0000 
      7 CA         20.3215    3.5800   45.2840 C.3       3 GLC5        0.0000 
      8 CA         21.9700    3.3960   46.3310 C.3       9 GLL5        0.0000 
      9 CA         18.6730    3.7640   44.2370 C.3       6 GLP5        0.0000 
     10 N          33.1070    5.7420   37.3465 N.am      2 SEC2        0.0000 
     11 N          33.1610    4.2600   37.4150 N.am      8 SEL2        0.0000 
     12 N          33.0530    7.2240   37.2780 N.am      5 SEP2        0.0000 
     13 N          31.7925    5.1675   36.9290 N.am      2 SEC2        0.0000 
     14 N          30.4240    6.0750   36.4430 N.am      5 SEP2        0.0000 
     15 N          20.6745    3.0400   42.8345 N.am      2 SEC2        0.0000 
     16 N          21.9890    3.1640   43.6210 N.am      8 SEL2        0.0000 
     17 N          19.3600    2.9160   42.0480 N.am      5 SEP2        0.0000 
     18 N          21.2655    4.2715   42.9580 N.am      2 SEC2        0.0000 
     19 N          20.5420    5.3790   42.2950 N.am      5 SEP2        0.0000 
     20 N          22.5650    4.6985   43.4425 N.am      2 SEC2        0.0000 
     21 N          23.1410    6.2330   43.2640 N.am      5 SEP2        0.0000 
     22 CA         21.9330    6.7610   45.3225 C.3       3 GLC5        0.0000 
     23 CA         21.7250    4.7540   46.2690 C.3       9 GLL5        0.0000 
     24 CA         22.1410    8.7680   44.3760 C.3       6 GLP5        0.0000 
     25 N          30.4170    4.8860   36.6120 N.am      2 SEC2        0.0000 
     26 N          30.4100    3.6970   36.7810 N.am      8 SEL2        0.0000 
     27 N          23.8470    5.2495   43.7375 N.am      2 SEC2        0.0000 
     28 N          24.5530    4.2660   44.2110 N.am      8 SEL2        0.0000 
     29 O          30.4965    0.5360   38.4885 O.2       1 ALC1        0.0000 
     30 O          29.7130    1.6250   37.6460 O.2       7 ALL1        0.0000 
     31 O          26.0510    1.0065   44.2865 O.2       1 ALC1        0.0000 
     32 O          26.1350    2.4790   44.4200 O.2       7 ALL1        0.0000 
     33 CA         31.1125    7.0250   33.1520 C.3       3 GLC5        0.0000 
     34 CA         32.2120    5.8440   32.4950 C.3       9 GLL5        0.0000 
     35 CA         30.0130    8.2060   33.8090 C.3       6 GLP5        0.0000 
     36 CA         32.9390    7.6255   32.6280 C.3       3 GLC5        0.0000 
     37 CA         33.6660    9.4070   32.7610 C.3       6 GLP5        0.0000 
     38 CA         33.2290    6.1405   30.9035 C.3       3 GLC5        0.0000 
     39 CA         34.2460    6.4370   29.3120 C.3       6 GLP5        0.0000 
     40 CA         21.6735    7.9600   45.8200 C.3       3 GLC5        0.0000 
     41 CA         21.2060    7.1520   47.2640 C.3       9 GLL5        0.0000 
     42 CA         19.6305    5.7445   46.8880 C.3       3 GLC5        0.0000 
     43 CA         18.0550    4.3370   46.5120 C.3       6 GLP5        0.0000 
     44 CA         19.6770    8.0215   46.1760 C.3       3 GLC5        0.0000 
     45 CA         18.1480    8.8910   45.0880 C.3       6 GLP5        0.0000 
     46 CA         19.8075    7.6035   48.3895 C.3       3 GLC5        0.0000 
     47 CA         18.4090    8.0550   49.5150 C.3       6 GLP5        0.0000 
     48 CA         33.3160    0.6145   35.9500 C.3       3 GLC5        0.0000 
     49 CA         33.6280    1.9930   34.2100 C.3       9 GLL5        0.0000 
     50 CA         33.0040   -0.7640   37.6900 C.3       6 GLP5        0.0000 
     51 CA         33.6940    4.8775   30.7690 C.3       3 GLC5        0.0000 
     52 CA         33.1420    3.3180   32.2260 C.3       9 GLL5        0.0000 
     53 CA         26.2675    3.6435   45.5825 C.3       3 GLC5        0.0000 
     54 CA         27.3380    3.2370   44.1030 C.3       9 GLL5        0.0000 
     55 CA         25.1970    4.0500   47.0620 C.3       6 GLP5        0.0000 
     56 CA         29.2450    1.8985   36.1540 C.3       3 GLC5        0.0000 
     57 CA         28.3320    1.9680   37.9840 C.3       9 GLL5        0.0000 
     58 CA         30.1580    1.8290   34.3240 C.3       6 GLP5        0.0000 
     59 CA         26.2620    3.9890   40.9335 C.3       3 GLC5        0.0000 
     60 CA         27.3330    3.5400   42.6020 C.3       9 GLL5        0.0000 
     61 CA         25.1910    4.4380   39.2650 C.3       6 GLP5        0.0000 
     62 CA         25.4790    2.8515   41.8545 C.3       3 GLC5        0.0000 
     63 CA         23.6250    2.1630   41.1070 C.3       6 GLP5        0.0000 
     64 CA         31.2055    1.4015   41.4595 C.3       3 GLC5        0.0000 
     65 CA         29.4240    2.4390   41.6240 C.3       9 GLL5        0.0000 
     66 CA         32.9870    0.3640   41.2950 C.3       6 GLP5        0.0000 
     67 CA         31.5827    2.7270   34.5352 C.3       3 GLC5        0.0000 
     68 CA         33.2240    3.0390   35.0330 C.3       9 GLL5        0.0000 
     69 CA         34.3637    4.8210   35.3978 C.3       3 GLC5        0.0000 
     70 CA         35.7200    6.0170   36.0490 C.3       6 GLP5        0.0000 
     71 CA         23.5222    4.0625   46.6810 C.3       3 GLC5        0.0000 
     72 CA         31.5520    2.8275   33.4903 C.3       3 GLC5        0.0000 
     73 CA         32.7500    4.3340   33.0870 C.3       9 GLL5        0.0000 
     74 CA         34.3445    5.3680   33.2110 C.3       3 GLC5        0.0000 
     75 CA         36.2080    5.6470   33.6310 C.3       6 GLP5        0.0000 
     76 CA         23.3488    4.5957   47.5597 C.3       3 GLC5        0.0000 
     77 CA         21.4920    5.4580   47.4340 C.3       9 GLL5        0.0000 
     78 CA         31.8813    1.9490   33.9197 C.3       3 GLC5        0.0000 
     79 CA         33.0963    0.2725   33.1423 C.3       3 GLC5        0.0000 
     80 CA         32.5880   -1.5240   32.7690 C.3       6 GLP5        0.0000 
     81 CA         23.5262    3.5735   47.6090 C.3       3 GLC5        0.0000 
     82 CA         21.9680    2.7450   47.5670 C.3       9 GLL5        0.0000 
     83 CA         22.9093    2.1605   49.3310 C.3       3 GLC5        0.0000 
     84 CA         23.9630    1.2240   50.5060 C.3       6 GLP5        0.0000 
     85 CA         34.7848    4.1892   33.0772 C.3       3 GLC5        0.0000 
     86 CA         33.5810    2.1450   32.8210 C.3       9 GLL5        0.0000 
     87 CA         31.2743    3.7683   31.3137 C.3       3 GLC5        0.0000 
     88 CA         29.7370    3.3330   30.1190 C.3       6 GLP5        0.0000 
     89 CA         22.7875    6.5310   48.9085 C.3       3 GLC5        0.0000 
     90 CA         24.1460    7.4970   49.8020 C.3       6 GLP5        0.0000 
     91 CA         28.7088    3.8122   44.4507 C.3       3 GLC5        0.0000 
     92 CA         30.0820    4.2360   45.5490 C.3       6 GLP5        0.0000 
     93 CA         26.7280    3.3572   38.9760 C.3       3 GLC5        0.0000 
     94 CA         28.1980    2.5850   39.3900 C.3       9 GLL5        0.0000 
     95 CA         26.9610    1.4183   37.6495 C.3       3 GLC5        0.0000 
     96 CA         25.6570    0.5600   36.6120 C.3       6 GLP5        0.0000 
     97 CA         28.6852    4.0685   40.3897 C.3       3 GLC5        0.0000 
     98 CA         28.9350    6.0130   40.8210 C.3       6 GLP5        0.0000 
     99 CA         30.4017    3.4580   41.0550 C.3       3 GLC5        0.0000 
    100 CA         28.7370    3.7430   42.0360 C.3       9 GLL5        0.0000 
    101 CA         31.7230    3.8250   40.2800 C.3       6 GLP5        0.0000 
    102 CA         29.5813    3.6635   43.6895 C.3       3 GLC5        0.0000 
    103 CA         30.0960    2.8974   39.9435 C.3       3 GLC5        0.0000 
    104 CA         28.6730    1.6630   40.5270 C.3       9 GLL5        0.0000 
    105 CA         28.8322    4.5266   41.3962 C.3       3 GLC5        0.0000 
    106 CA         19.8811    4.1841   47.2366 C.3       3 GLC5        0.0000 
    107 CA         21.7430    3.4490   48.7450 C.3       9 GLL5        0.0000 
@<TRIPOS>BOND
@<TRIPOS>SUBSTRUCTURE
     1 ALC1        1 GROUP        1 X    ALC  0     ROOT ALC X 1
     2 SEC2       10 GROUP        1 X    SEC  0     **** SEC X 2
     3 GLC5        7 GROUP        1 X    GLC  0     **** GLC X 6
     4 ALP1        3 GROUP        1 Y    ALP  0     ROOT ALP Y 8
     5 SEP2       12 GROUP        1 Y    SEP  0     **** SEP Y 9
     6 GLP5        9 GROUP        1 Y    GLP  0     **** GLP Y 13
     7 ALL1        2 GROUP        1 Z    ALL  0     ROOT ALL Z 15
     8 SEL2       11 GROUP        1 Z    SEL  0     **** SEL Z 16
     9 GLL5        8 GROUP        1 Z    GLL  0     **** GLL Z 20
@<TRIPOS>SET

