#    Name: 2jjk_R15_1_ligand
#    Modification time : Tue Mar 25 20:58:18 2014

@<TRIPOS>MOLECULE
2jjk_R15_1_ligand
   61    62     1     0     0
SMALL
NO_CHARGES


@<TRIPOS>ATOM
      1 S1         33.2610    2.9260   36.7910 S.o2      1 R151336     0.0000 
      2 S2         22.2780    2.4590   44.8470 S.o2      1 R151336     0.0000 
      3 N3         23.9170    2.0640   44.7520 N.am      1 R151336     0.0000 
      4 N5         31.9390    2.0130   37.2840 N.am      1 R151336     0.0000 
      5 C7         30.6530    2.5390   37.2000 C.2       1 R151336     0.0000 
      6 C8         24.8520    3.0480   44.4400 C.2       1 R151336     0.0000 
      7 C9         33.2240    3.0390   35.0330 C.ar      1 R151336     0.0000 
      8 C10        21.9700    3.3960   46.3310 C.ar      1 R151336     0.0000 
      9 O11        33.1610    4.2600   37.4150 O.2       1 R151336     0.0000 
     10 O12        21.9890    3.1640   43.6210 O.2       1 R151336     0.0000 
     11 O13        21.5110    1.2390   45.0630 O.2       1 R151336     0.0000 
     12 O14        34.5120    2.2230   37.1180 O.2       1 R151336     0.0000 
     13 C15        32.7910    4.2110   34.4600 C.ar      1 R151336     0.0000 
     14 C17        21.7250    4.7540   46.2690 C.ar      1 R151336     0.0000 
     15 O19        30.4100    3.6970   36.7810 O.2       1 R151336     0.0000 
     16 O20        24.5530    4.2660   44.2110 O.2       1 R151336     0.0000 
     17 N21        29.7130    1.6250   37.6460 N.am      1 R151336     0.0000 
     18 N22        26.1350    2.4790   44.4200 N.am      1 R151336     0.0000 
     19 C23        32.7500    4.3340   33.0870 C.ar      1 R151336     0.0000 
     20 C24        21.4920    5.4580   47.4340 C.ar      1 R151336     0.0000 
     21 CL25       32.2120    5.8440   32.4950 Cl        1 R151336     0.0000 
     22 CL26       21.2060    7.1520   47.2640 Cl        1 R151336     0.0000 
     23 C27        33.6280    1.9930   34.2100 C.ar      1 R151336     0.0000 
     24 C29        21.9680    2.7450   47.5670 C.ar      1 R151336     0.0000 
     25 C31        33.5810    2.1450   32.8210 C.ar      1 R151336     0.0000 
     26 C33        21.7430    3.4490   48.7450 C.ar      1 R151336     0.0000 
     27 C41        33.1420    3.3180   32.2260 C.ar      1 R151336     0.0000 
     28 C43        21.5090    4.8250   48.6810 C.ar      1 R151336     0.0000 
     29 C35        27.3380    3.2370   44.1030 C.3       1 R151336     0.0000 
     30 C38        28.3320    1.9680   37.9840 C.3       1 R151336     0.0000 
     31 C45        27.3330    3.5400   42.6020 C.3       1 R151336     0.0000 
     32 C48        28.1980    2.5850   39.3900 C.3       1 R151336     0.0000 
     33 C51        28.7370    3.7430   42.0360 C.3       1 R151336     0.0000 
     34 C54        28.6730    1.6630   40.5270 C.3       1 R151336     0.0000 
     35 C57        29.4240    2.4390   41.6240 C.3       1 R151336     0.0000 
     36 H          24.0810    1.1095   44.9376 H         1 R151336     0.0000 
     37 H          32.2039    1.1186   37.6146 H         1 R151336     0.0000 
     38 H          32.4957    5.0012   35.0563 H         1 R151336     0.0000 
     39 H          21.7162    5.2374   45.3614 H         1 R151336     0.0000 
     40 H          29.9770    0.6176   37.7586 H         1 R151336     0.0000 
     41 H          26.2553    1.4712   44.6385 H         1 R151336     0.0000 
     42 H          33.9596    1.1125   34.6173 H         1 R151336     0.0000 
     43 H          22.1364    1.7258   47.6036 H         1 R151336     0.0000 
     44 H          33.8857    1.3512   32.2198 H         1 R151336     0.0000 
     45 H          21.7481    2.9694   49.6464 H         1 R151336     0.0000 
     46 H          33.1092    3.4271   31.2291 H         1 R151336     0.0000 
     47 H          21.3522    5.3626   49.5342 H         1 R151336     0.0000 
     48 H          28.2344    2.6684   44.3327 H         1 R151336     0.0000 
     49 H          27.3630    4.1803   44.6408 H         1 R151336     0.0000 
     50 H          27.6860    1.0744   37.9473 H         1 R151336     0.0000 
     51 H          27.9194    2.6910   37.2601 H         1 R151336     0.0000 
     52 H          26.7391    4.4444   42.4228 H         1 R151336     0.0000 
     53 H          26.8486    2.7108   42.0725 H         1 R151336     0.0000 
     54 H          27.1439    2.8481   39.5623 H         1 R151336     0.0000 
     55 H          28.7781    3.5190   39.4236 H         1 R151336     0.0000 
     56 H          29.3576    4.2501   42.7897 H         1 R151336     0.0000 
     57 H          28.6783    4.4069   41.1606 H         1 R151336     0.0000 
     58 H          29.3349    0.8998   40.1140 H         1 R151336     0.0000 
     59 H          27.8069    1.1683   40.9701 H         1 R151336     0.0000 
     60 H          29.5259    1.7918   42.5073 H         1 R151336     0.0000 
     61 H          30.4385    2.6652   41.2647 H         1 R151336     0.0000 
@<TRIPOS>BOND
     1    4    1 1    
     2    7    1 1    
     3    9    1 2    
     4   12    1 2    
     5    3    2 1    
     6    8    2 1    
     7   10    2 2    
     8   11    2 2    
     9    6    3 am   
    10   36    3 1    
    11    5    4 am   
    12   37    4 1    
    13   15    5 2    
    14   17    5 am   
    15   16    6 2    
    16   18    6 am   
    17   13    7 ar   
    18   23    7 ar   
    19   14    8 ar   
    20   24    8 ar   
    21   19   13 ar   
    22   38   13 1    
    23   20   14 ar   
    24   39   14 1    
    25   30   17 1    
    26   40   17 1    
    27   29   18 1    
    28   41   18 1    
    29   21   19 1    
    30   27   19 ar   
    31   22   20 1    
    32   28   20 ar   
    33   25   23 ar   
    34   42   23 1    
    35   26   24 ar   
    36   43   24 1    
    37   27   25 ar   
    38   44   25 1    
    39   28   26 ar   
    40   45   26 1    
    41   46   27 1    
    42   47   28 1    
    43   31   29 1    
    44   48   29 1    
    45   49   29 1    
    46   32   30 1    
    47   50   30 1    
    48   51   30 1    
    49   33   31 1    
    50   52   31 1    
    51   53   31 1    
    52   34   32 1    
    53   54   32 1    
    54   55   32 1    
    55   35   33 1    
    56   56   33 1    
    57   57   33 1    
    58   35   34 1    
    59   58   34 1    
    60   59   34 1    
    61   60   35 1    
    62   61   35 1    
@<TRIPOS>SUBSTRUCTURE
     1 R151336     1 GROUP   
@<TRIPOS>SET

