#    Name: 2RFI_2_CAVITY_N1_6.mol2
#    Modification time : Mon Mar 10 13:09:59 2014

@<TRIPOS>MOLECULE
2RFI_2_CAVITY_N1_6.mol2
  127     0     5     0     0
SMALL
NO_CHARGES


@<TRIPOS>ATOM
      1 O          24.4564   71.6224   19.8663 O.2       2 ALA2        0.0000 
      2 O          24.7071   70.4294   18.9923 O.2       2 ALA2        0.0000 
      3 DU         24.7778   69.5537   20.2081 H         5 CUB7        0.0000 
      4 CZ         23.2299   70.1850   18.9022 C.ar      3 PHE5        0.0000 
      5 DU         23.3006   69.3092   20.1179 H         5 CUB7        0.0000 
      6 O          27.7708   71.4769   15.8672 O.2       2 ALA2        0.0000 
      7 O          27.8415   70.6011   17.0829 O.2       2 ALA2        0.0000 
      8 CA         27.9122   69.7253   18.2986 C.3       4 GLY6        0.0000 
      9 N          26.2936   71.2324   15.7770 N.2       2 ALA2        0.0000 
     10 CZ         26.3643   70.3567   16.9928 C.ar      3 PHE5        0.0000 
     11 O          26.4350   69.4809   18.2085 O.2       2 ALA2        0.0000 
     12 CA         26.5057   68.6051   19.4242 C.3       4 GLY6        0.0000 
     13 CZ         24.9578   69.2364   18.1183 C.ar      3 PHE5        0.0000 
     14 N          25.0285   68.3607   19.3340 N.2       2 ALA2        0.0000 
     15 N          25.0992   67.4849   20.5498 N.2       2 ALA2        0.0000 
     16 CZ         23.4806   68.9920   18.0282 C.ar      3 PHE5        0.0000 
     17 DU         23.5513   68.1162   19.2439 H         5 CUB7        0.0000 
     18 DU         23.6220   67.2404   20.4596 H         5 CUB7        0.0000 
     19 CZ         22.0034   68.7476   17.9380 C.ar      3 PHE5        0.0000 
     20 DU         22.0741   67.8718   19.1537 H         5 CUB7        0.0000 
     21 CZ         20.5262   68.5032   17.8479 C.ar      3 PHE5        0.0000 
     22 CA         29.5695   69.6525   16.2991 C.3       4 GLY6        0.0000 
     23 CA         28.0215   70.2839   14.9932 C.3       4 GLY6        0.0000 
     24 CA         28.0922   69.4081   16.2089 C.3       4 GLY6        0.0000 
     25 CA         28.1630   68.5323   17.4246 C.3       4 GLY6        0.0000 
     26 CZ         26.5443   70.0394   14.9030 C.ar      3 PHE5        0.0000 
     27 CZ         26.6150   69.1637   16.1187 C.ar      3 PHE5        0.0000 
     28 CA         26.6858   68.2879   17.3345 C.3       4 GLY6        0.0000 
     29 N          26.7565   67.4121   18.5502 N.2       2 ALA2        0.0000 
     30 CZ         25.1378   68.9192   16.0286 C.ar      3 PHE5        0.0000 
     31 CZ         25.2086   68.0434   17.2443 C.ar      3 PHE5        0.0000 
     32 N          25.2793   67.1677   18.4600 N.2       2 ALA2        0.0000 
     33 N          25.3500   66.2919   19.6758 N.2       2 ALA2        0.0000 
     34 CZ         23.7313   67.7990   17.1542 C.ar      3 PHE5        0.0000 
     35 DU         23.8021   66.9232   18.3699 H         5 CUB7        0.0000 
     36 N          23.8728   66.0474   19.5856 N.2       2 ALA2        0.0000 
     37 N          23.9435   65.1717   20.8013 N.2       2 ALA2        0.0000 
     38 N          24.0142   64.2959   22.0171 N.2       2 ALA2        0.0000 
     39 CA         24.0849   63.4201   23.2328 C.3       4 GLY6        0.0000 
     40 CZ         22.2541   67.5546   17.0640 C.ar      3 PHE5        0.0000 
     41 DU         22.3249   66.6788   18.2797 H         5 CUB7        0.0000 
     42 DU         22.4663   64.9272   20.7112 H         5 CUB7        0.0000 
     43 DU         22.5370   64.0514   21.9269 H         5 CUB7        0.0000 
     44 CZ         20.7769   67.3102   16.9739 C.ar      3 PHE5        0.0000 
     45 OG         20.8477   66.4344   18.1896 O.2       1 SER1        0.0000 
     46 DU         20.9184   65.5586   19.4053 H         5 CUB7        0.0000 
     47 OG         19.3704   66.1900   18.0994 O.2       1 SER1        0.0000 
     48 O          26.1136   71.5497   17.8668 O.2       2 ALA2        0.0000 
     49 O          26.2550   69.7981   20.2982 O.2       2 ALA2        0.0000 
     50 CA         26.3257   68.9223   21.5139 C.3       4 GLY6        0.0000 
     51 N          24.8757   61.2754   16.0896 N.2       2 ALA2        0.0000 
     52 N          23.3278   61.9068   14.7837 N.2       2 ALA2        0.0000 
     53 N          23.3985   61.0310   15.9994 N.2       2 ALA2        0.0000 
     54 OG         25.0557   60.9582   13.9999 O.2       1 SER1        0.0000 
     55 CZ         23.4371   62.4654   11.4783 C.ar      3 PHE5        0.0000 
     56 CZ         23.5078   61.5896   12.6940 C.ar      3 PHE5        0.0000 
     57 N          23.5785   60.7138   13.9097 N.2       2 ALA2        0.0000 
     58 N          21.9599   62.2210   11.3881 N.2       2 ALA2        0.0000 
     59 CZ         25.2357   60.6410   11.9101 C.ar      3 PHE5        0.0000 
     60 N          25.3065   59.7652   13.1259 N.2       2 ALA2        0.0000 
     61 OG         23.7585   60.3966   11.8200 O.2       1 SER1        0.0000 
     62 OG         23.8293   59.5208   13.0357 O.2       1 SER1        0.0000 
     63 CA         28.2723   69.0909   14.1192 C.3       4 GLY6        0.0000 
     64 CA         28.3430   68.2151   15.3349 C.3       4 GLY6        0.0000 
     65 CA         28.4137   67.3393   16.5506 C.3       4 GLY6        0.0000 
     66 CZ         26.7951   68.8464   14.0290 C.ar      3 PHE5        0.0000 
     67 CA         26.8658   67.9707   15.2447 C.3       4 GLY6        0.0000 
     68 O          26.9365   67.0949   16.4605 O.2       2 ALA2        0.0000 
     69 CZ         25.3179   68.6020   13.9389 C.ar      3 PHE5        0.0000 
     70 CZ         25.3886   67.7262   15.1546 C.ar      3 PHE5        0.0000 
     71 O          25.4593   66.8504   16.3703 O.2       2 ALA2        0.0000 
     72 O          25.5300   65.9747   17.5860 O.2       2 ALA2        0.0000 
     73 O          25.6007   65.0989   18.8018 O.2       2 ALA2        0.0000 
     74 N          25.6714   64.2231   20.0175 N.2       2 ALA2        0.0000 
     75 O          25.7421   63.3473   21.2332 O.2       2 ALA2        0.0000 
     76 O          25.8129   62.4715   22.4489 O.2       2 ALA2        0.0000 
     77 CZ         23.9114   67.4818   15.0644 C.ar      3 PHE5        0.0000 
     78 CZ         23.9821   66.6060   16.2802 C.ar      3 PHE5        0.0000 
     79 DU         24.0528   65.7302   17.4959 H         5 CUB7        0.0000 
     80 DU         24.1235   64.8544   18.7116 H         5 CUB7        0.0000 
     81 DU         24.1942   63.9787   19.9273 H         5 CUB7        0.0000 
     82 DU         24.2649   63.1029   21.1431 H         5 CUB7        0.0000 
     83 CA         24.3356   62.2271   22.3588 C.3       4 GLY6        0.0000 
     84 CZ         22.5049   66.3616   16.1900 C.ar      3 PHE5        0.0000 
     85 DU         22.5756   65.4858   17.4057 H         5 CUB7        0.0000 
     86 DU         22.6463   64.6100   18.6215 H         5 CUB7        0.0000 
     87 OG         22.7170   63.7342   19.8372 O.2       1 SER1        0.0000 
     88 OG         22.7877   62.8584   21.0529 O.2       1 SER1        0.0000 
     89 OG         21.0277   66.1172   16.0999 O.2       1 SER1        0.0000 
     90 OG         21.0984   65.2414   17.3156 O.2       1 SER1        0.0000 
     91 CA         21.1691   64.3656   18.5313 C.3       4 GLY6        0.0000 
     92 OG         21.2398   63.4898   19.7470 O.2       1 SER1        0.0000 
     93 OG         21.3105   62.6140   20.9628 O.2       1 SER1        0.0000 
     94 CA         19.6919   64.1212   18.4412 C.3       4 GLY6        0.0000 
     95 O          27.1165   66.7777   14.3707 O.2       2 ALA2        0.0000 
     96 O          27.1872   65.9019   15.5865 O.2       2 ALA2        0.0000 
     97 OG         25.7100   65.6574   15.4963 O.2       1 SER1        0.0000 
     98 O          25.7807   64.7817   16.7120 O.2       2 ALA2        0.0000 
     99 O          25.9222   63.0301   19.1435 O.2       2 ALA2        0.0000 
    100 N          25.9929   62.1543   20.3592 N.2       2 ALA2        0.0000 
    101 CA         26.0636   61.2785   21.5749 C.3       4 GLY6        0.0000 
    102 CZ         24.2328   65.4130   15.4062 C.ar      3 PHE5        0.0000 
    103 OG         24.3035   64.5372   16.6219 O.2       1 SER1        0.0000 
    104 O          24.3742   63.6614   17.8376 O.2       2 ALA2        0.0000 
    105 DU         24.4450   62.7857   19.0533 H         5 CUB7        0.0000 
    106 OG         24.5157   61.9099   20.2691 O.2       1 SER1        0.0000 
    107 CZ         24.5864   61.0341   21.4848 C.ar      3 PHE5        0.0000 
    108 CA         24.6571   60.1583   22.7005 C.3       4 GLY6        0.0000 
    109 CZ         22.7556   65.1686   15.3160 C.ar      3 PHE5        0.0000 
    110 DU         22.8263   64.2928   16.5317 H         5 CUB7        0.0000 
    111 DU         22.8970   63.4170   17.7475 H         5 CUB7        0.0000 
    112 OG         22.9678   62.5412   18.9632 O.2       1 SER1        0.0000 
    113 OG         23.1092   60.7897   21.3946 O.2       1 SER1        0.0000 
    114 CA         21.2784   64.9242   15.2259 C.3       4 GLY6        0.0000 
    115 CA         21.3491   64.0484   16.4416 C.3       4 GLY6        0.0000 
    116 CA         21.4198   63.1726   17.6573 C.3       4 GLY6        0.0000 
    117 O          26.1022   62.7129   17.0538 O.2       2 ALA2        0.0000 
    118 N          26.1729   61.8371   18.2695 N.2       2 ALA2        0.0000 
    119 CA         26.2436   60.9613   19.4852 C.3       4 GLY6        0.0000 
    120 OG         24.6250   62.4684   16.9636 O.2       1 SER1        0.0000 
    121 N          24.6957   61.5927   18.1793 N.2       2 ALA2        0.0000 
    122 N          24.7664   60.7169   19.3951 N.2       2 ALA2        0.0000 
    123 CZ         23.0063   63.9756   14.4420 C.ar      3 PHE5        0.0000 
    124 N          23.0771   63.0998   15.6577 N.2       2 ALA2        0.0000 
    125 CZ         23.1478   62.2240   16.8734 C.ar      3 PHE5        0.0000 
    126 CZ         23.2185   61.3482   18.0892 C.ar      3 PHE5        0.0000 
    127 CZ         21.6706   61.9796   16.7833 C.ar      3 PHE5        0.0000 
@<TRIPOS>BOND
@<TRIPOS>SUBSTRUCTURE
     1 SER1       45 GROUP   
     2 ALA2        1 GROUP   
     3 PHE5        4 GROUP   
     4 GLY6        8 GROUP   
     5 CUB7        3 GROUP   
@<TRIPOS>SET

