#    Name: 2RFI_2_CAVITY_N1_ALL.mol2
#    Modification time : Mon Mar 10 13:09:59 2014

@<TRIPOS>MOLECULE
2RFI_2_CAVITY_N1_ALL.mol2
  181     0     6     0     0
SMALL
NO_CHARGES


@<TRIPOS>ATOM
      1 O          24.4564   71.6224   19.8663 O.2       2 ALA2        0.0000 
      2 O          24.7071   70.4294   18.9923 O.2       2 ALA2        0.0000 
      3 DU         24.7778   69.5537   20.2081 H         6 CUB7        0.0000 
      4 CZ         23.2299   70.1850   18.9022 C.ar      4 PHE5        0.0000 
      5 DU         23.3006   69.3092   20.1179 H         6 CUB7        0.0000 
      6 O          27.7708   71.4769   15.8672 O.2       2 ALA2        0.0000 
      7 O          27.8415   70.6011   17.0829 O.2       2 ALA2        0.0000 
      8 CA         27.9122   69.7253   18.2986 C.3       5 GLY6        0.0000 
      9 N          26.2936   71.2324   15.7770 N.2       2 ALA2        0.0000 
     10 CZ         26.3643   70.3567   16.9928 C.ar      4 PHE5        0.0000 
     11 O          26.4350   69.4809   18.2085 O.2       2 ALA2        0.0000 
     12 CA         26.5057   68.6051   19.4242 C.3       5 GLY6        0.0000 
     13 CZ         24.9578   69.2364   18.1183 C.ar      4 PHE5        0.0000 
     14 N          25.0285   68.3607   19.3340 N.2       2 ALA2        0.0000 
     15 N          25.0992   67.4849   20.5498 N.2       2 ALA2        0.0000 
     16 CZ         23.4806   68.9920   18.0282 C.ar      4 PHE5        0.0000 
     17 DU         23.5513   68.1162   19.2439 H         6 CUB7        0.0000 
     18 DU         23.6220   67.2404   20.4596 H         6 CUB7        0.0000 
     19 CZ         22.0034   68.7476   17.9380 C.ar      4 PHE5        0.0000 
     20 DU         22.0741   67.8718   19.1537 H         6 CUB7        0.0000 
     21 CZ         20.5262   68.5032   17.8479 C.ar      4 PHE5        0.0000 
     22 CA         29.5695   69.6525   16.2991 C.3       5 GLY6        0.0000 
     23 CA         28.0215   70.2839   14.9932 C.3       5 GLY6        0.0000 
     24 CA         28.0922   69.4081   16.2089 C.3       5 GLY6        0.0000 
     25 CA         28.1630   68.5323   17.4246 C.3       5 GLY6        0.0000 
     26 CZ         26.5443   70.0394   14.9030 C.ar      4 PHE5        0.0000 
     27 CZ         26.6150   69.1637   16.1187 C.ar      4 PHE5        0.0000 
     28 CA         26.6858   68.2879   17.3345 C.3       5 GLY6        0.0000 
     29 N          26.7565   67.4121   18.5502 N.2       2 ALA2        0.0000 
     30 CZ         25.1378   68.9192   16.0286 C.ar      4 PHE5        0.0000 
     31 CZ         25.2086   68.0434   17.2443 C.ar      4 PHE5        0.0000 
     32 N          25.2793   67.1677   18.4600 N.2       2 ALA2        0.0000 
     33 N          25.3500   66.2919   19.6758 N.2       2 ALA2        0.0000 
     34 CZ         23.7313   67.7990   17.1542 C.ar      4 PHE5        0.0000 
     35 DU         23.8021   66.9232   18.3699 H         6 CUB7        0.0000 
     36 N          23.8728   66.0474   19.5856 N.2       2 ALA2        0.0000 
     37 N          23.9435   65.1717   20.8013 N.2       2 ALA2        0.0000 
     38 N          24.0142   64.2959   22.0171 N.2       2 ALA2        0.0000 
     39 CA         24.0849   63.4201   23.2328 C.3       5 GLY6        0.0000 
     40 CZ         22.2541   67.5546   17.0640 C.ar      4 PHE5        0.0000 
     41 DU         22.3249   66.6788   18.2797 H         6 CUB7        0.0000 
     42 DU         22.4663   64.9272   20.7112 H         6 CUB7        0.0000 
     43 DU         22.5370   64.0514   21.9269 H         6 CUB7        0.0000 
     44 CZ         20.7769   67.3102   16.9739 C.ar      4 PHE5        0.0000 
     45 OG         20.8477   66.4344   18.1896 O.2       1 SER1        0.0000 
     46 DU         20.9184   65.5586   19.4053 H         6 CUB7        0.0000 
     47 OG         19.3704   66.1900   18.0994 O.2       1 SER1        0.0000 
     48 CZ         22.5000   61.2694    5.1189 C.ar      4 PHE5        0.0000 
     49 CZ         22.5707   60.3936    6.3346 C.ar      4 PHE5        0.0000 
     50 O          21.0227   61.0249    5.0288 O.2       2 ALA2        0.0000 
     51 O          26.1136   71.5497   17.8668 O.2       2 ALA2        0.0000 
     52 O          26.2550   69.7981   20.2982 O.2       2 ALA2        0.0000 
     53 CA         26.3257   68.9223   21.5139 C.3       5 GLY6        0.0000 
     54 N          24.8757   61.2754   16.0896 N.2       2 ALA2        0.0000 
     55 N          23.3278   61.9068   14.7837 N.2       2 ALA2        0.0000 
     56 N          23.3985   61.0310   15.9994 N.2       2 ALA2        0.0000 
     57 CA         18.5426   65.5525    8.4346 C.3       5 GLY6        0.0000 
     58 CZ         18.6133   64.6767    9.6504 C.ar      4 PHE5        0.0000 
     59 N          17.0654   65.3081    8.3445 N.2       2 ALA2        0.0000 
     60 N          17.1361   64.4323    9.5602 N.2       2 ALA2        0.0000 
     61 N          15.5882   65.0637    8.2543 N.2       2 ALA2        0.0000 
     62 N          15.6589   64.1879    9.4701 N.2       2 ALA2        0.0000 
     63 OG         25.0557   60.9582   13.9999 O.2       1 SER1        0.0000 
     64 CZ         23.3664   63.3412   10.2625 C.ar      4 PHE5        0.0000 
     65 CZ         23.4371   62.4654   11.4783 C.ar      4 PHE5        0.0000 
     66 CZ         23.5078   61.5896   12.6940 C.ar      4 PHE5        0.0000 
     67 N          23.5785   60.7138   13.9097 N.2       2 ALA2        0.0000 
     68 CZ         21.8185   63.9726    8.9567 C.ar      4 PHE5        0.0000 
     69 CZ         21.8892   63.0968   10.1724 C.ar      4 PHE5        0.0000 
     70 N          21.9599   62.2210   11.3881 N.2       2 ALA2        0.0000 
     71 CA         20.2705   64.6039    7.6508 C.3       5 GLY6        0.0000 
     72 CZ         20.3413   63.7282    8.8665 C.ar      4 PHE5        0.0000 
     73 N          20.4120   62.8524   10.0822 N.2       2 ALA2        0.0000 
     74 N          18.7933   64.3595    7.5606 N.2       2 ALA2        0.0000 
     75 N          18.8641   63.4837    8.7764 N.2       2 ALA2        0.0000 
     76 N          17.3161   64.1151    7.4705 N.2       2 ALA2        0.0000 
     77 N          17.3869   63.2393    8.6862 N.2       2 ALA2        0.0000 
     78 N          15.7682   64.7465    6.1646 N.2       2 ALA2        0.0000 
     79 DU         15.8389   63.8707    7.3803 H         6 CUB7        0.0000 
     80 CA         15.9096   62.9949    8.5960 C.3       5 GLY6        0.0000 
     81 CZ         25.2357   60.6410   11.9101 C.ar      4 PHE5        0.0000 
     82 N          25.3065   59.7652   13.1259 N.2       2 ALA2        0.0000 
     83 N          23.5464   63.0240    8.1728 N.2       2 ALA2        0.0000 
     84 CZ         23.6171   62.1482    9.3885 C.ar      4 PHE5        0.0000 
     85 CZ         23.6878   61.2724   10.6043 C.ar      4 PHE5        0.0000 
     86 OG         23.7585   60.3966   11.8200 O.2       1 SER1        0.0000 
     87 OG         23.8293   59.5208   13.0357 O.2       1 SER1        0.0000 
     88 N          22.0692   62.7796    8.0827 N.2       2 ALA2        0.0000 
     89 N          22.1399   61.9038    9.2984 N.2       2 ALA2        0.0000 
     90 N          22.2106   61.0280   10.5141 N.2       2 ALA2        0.0000 
     91 OG         22.2813   60.1522   11.7298 O.2       1 SER1        0.0000 
     92 CA         20.4506   64.2867    5.5611 C.3       5 GLY6        0.0000 
     93 N          20.5213   63.4109    6.7768 N.2       2 ALA2        0.0000 
     94 N          20.5920   62.5352    7.9925 N.2       2 ALA2        0.0000 
     95 CA         18.9734   64.0423    5.4709 C.3       5 GLY6        0.0000 
     96 N          19.0441   63.1665    6.6866 N.2       2 ALA2        0.0000 
     97 CA         17.4962   63.7979    5.3807 C.3       5 GLY6        0.0000 
     98 N          17.5669   62.9221    6.5965 N.2       2 ALA2        0.0000 
     99 N          17.6376   62.0463    7.8122 N.2       2 ALA2        0.0000 
    100 NZ         16.0897   62.6777    6.5063 N.2       3 LYS4        0.0000 
    101 N          23.7971   61.8310    7.2988 N.2       2 ALA2        0.0000 
    102 CZ         23.8679   60.9552    8.5145 C.ar      4 PHE5        0.0000 
    103 CZ         23.9386   60.0794    9.7303 C.ar      4 PHE5        0.0000 
    104 CZ         24.0093   59.2036   10.9460 C.ar      4 PHE5        0.0000 
    105 N          22.2492   62.4624    5.9929 N.2       2 ALA2        0.0000 
    106 N          22.3199   61.5866    7.2087 N.2       2 ALA2        0.0000 
    107 CZ         22.3906   60.7108    8.4244 C.ar      4 PHE5        0.0000 
    108 CZ         22.4614   59.8350    9.6401 C.ar      4 PHE5        0.0000 
    109 N          20.7013   63.0937    4.6870 N.2       2 ALA2        0.0000 
    110 N          20.7720   62.2179    5.9028 N.2       2 ALA2        0.0000 
    111 N          20.8427   61.3422    7.1185 N.2       2 ALA2        0.0000 
    112 CA         19.2241   62.8493    4.5969 C.3       5 GLY6        0.0000 
    113 O          19.2948   61.9735    5.8126 O.2       2 ALA2        0.0000 
    114 NZ         17.8176   61.7291    5.7225 N.2       3 LYS4        0.0000 
    115 CA         28.2723   69.0909   14.1192 C.3       5 GLY6        0.0000 
    116 CA         28.3430   68.2151   15.3349 C.3       5 GLY6        0.0000 
    117 CA         28.4137   67.3393   16.5506 C.3       5 GLY6        0.0000 
    118 CZ         26.7951   68.8464   14.0290 C.ar      4 PHE5        0.0000 
    119 CA         26.8658   67.9707   15.2447 C.3       5 GLY6        0.0000 
    120 O          26.9365   67.0949   16.4605 O.2       2 ALA2        0.0000 
    121 CZ         25.3179   68.6020   13.9389 C.ar      4 PHE5        0.0000 
    122 CZ         25.3886   67.7262   15.1546 C.ar      4 PHE5        0.0000 
    123 O          25.4593   66.8504   16.3703 O.2       2 ALA2        0.0000 
    124 O          25.5300   65.9747   17.5860 O.2       2 ALA2        0.0000 
    125 O          25.6007   65.0989   18.8018 O.2       2 ALA2        0.0000 
    126 N          25.6714   64.2231   20.0175 N.2       2 ALA2        0.0000 
    127 O          25.7421   63.3473   21.2332 O.2       2 ALA2        0.0000 
    128 O          25.8129   62.4715   22.4489 O.2       2 ALA2        0.0000 
    129 CZ         23.9114   67.4818   15.0644 C.ar      4 PHE5        0.0000 
    130 CZ         23.9821   66.6060   16.2802 C.ar      4 PHE5        0.0000 
    131 DU         24.0528   65.7302   17.4959 H         6 CUB7        0.0000 
    132 DU         24.1235   64.8544   18.7116 H         6 CUB7        0.0000 
    133 DU         24.1942   63.9787   19.9273 H         6 CUB7        0.0000 
    134 DU         24.2649   63.1029   21.1431 H         6 CUB7        0.0000 
    135 CA         24.3356   62.2271   22.3588 C.3       5 GLY6        0.0000 
    136 CZ         22.5049   66.3616   16.1900 C.ar      4 PHE5        0.0000 
    137 DU         22.5756   65.4858   17.4057 H         6 CUB7        0.0000 
    138 DU         22.6463   64.6100   18.6215 H         6 CUB7        0.0000 
    139 OG         22.7170   63.7342   19.8372 O.2       1 SER1        0.0000 
    140 OG         22.7877   62.8584   21.0529 O.2       1 SER1        0.0000 
    141 OG         21.0277   66.1172   16.0999 O.2       1 SER1        0.0000 
    142 OG         21.0984   65.2414   17.3156 O.2       1 SER1        0.0000 
    143 CA         21.1691   64.3656   18.5313 C.3       5 GLY6        0.0000 
    144 OG         21.2398   63.4898   19.7470 O.2       1 SER1        0.0000 
    145 OG         21.3105   62.6140   20.9628 O.2       1 SER1        0.0000 
    146 CA         19.6919   64.1212   18.4412 C.3       5 GLY6        0.0000 
    147 O          27.1165   66.7777   14.3707 O.2       2 ALA2        0.0000 
    148 O          27.1872   65.9019   15.5865 O.2       2 ALA2        0.0000 
    149 OG         25.7100   65.6574   15.4963 O.2       1 SER1        0.0000 
    150 O          25.7807   64.7817   16.7120 O.2       2 ALA2        0.0000 
    151 O          25.9222   63.0301   19.1435 O.2       2 ALA2        0.0000 
    152 N          25.9929   62.1543   20.3592 N.2       2 ALA2        0.0000 
    153 CA         26.0636   61.2785   21.5749 C.3       5 GLY6        0.0000 
    154 CZ         24.2328   65.4130   15.4062 C.ar      4 PHE5        0.0000 
    155 OG         24.3035   64.5372   16.6219 O.2       1 SER1        0.0000 
    156 O          24.3742   63.6614   17.8376 O.2       2 ALA2        0.0000 
    157 DU         24.4450   62.7857   19.0533 H         6 CUB7        0.0000 
    158 OG         24.5157   61.9099   20.2691 O.2       1 SER1        0.0000 
    159 CZ         24.5864   61.0341   21.4848 C.ar      4 PHE5        0.0000 
    160 CA         24.6571   60.1583   22.7005 C.3       5 GLY6        0.0000 
    161 CZ         22.7556   65.1686   15.3160 C.ar      4 PHE5        0.0000 
    162 DU         22.8263   64.2928   16.5317 H         6 CUB7        0.0000 
    163 DU         22.8970   63.4170   17.7475 H         6 CUB7        0.0000 
    164 OG         22.9678   62.5412   18.9632 O.2       1 SER1        0.0000 
    165 OG         23.1092   60.7897   21.3946 O.2       1 SER1        0.0000 
    166 CA         21.2784   64.9242   15.2259 C.3       5 GLY6        0.0000 
    167 CA         21.3491   64.0484   16.4416 C.3       5 GLY6        0.0000 
    168 CA         21.4198   63.1726   17.6573 C.3       5 GLY6        0.0000 
    169 O          26.1022   62.7129   17.0538 O.2       2 ALA2        0.0000 
    170 N          26.1729   61.8371   18.2695 N.2       2 ALA2        0.0000 
    171 CA         26.2436   60.9613   19.4852 C.3       5 GLY6        0.0000 
    172 OG         24.6250   62.4684   16.9636 O.2       1 SER1        0.0000 
    173 N          24.6957   61.5927   18.1793 N.2       2 ALA2        0.0000 
    174 N          24.7664   60.7169   19.3951 N.2       2 ALA2        0.0000 
    175 CZ         23.0063   63.9756   14.4420 C.ar      4 PHE5        0.0000 
    176 N          23.0771   63.0998   15.6577 N.2       2 ALA2        0.0000 
    177 CZ         23.1478   62.2240   16.8734 C.ar      4 PHE5        0.0000 
    178 CZ         23.2185   61.3482   18.0892 C.ar      4 PHE5        0.0000 
    179 CZ         21.6706   61.9796   16.7833 C.ar      4 PHE5        0.0000 
    180 N          16.8147   66.5011    9.2185 N.2       2 ALA2        0.0000 
    181 N          16.8854   65.6253   10.4342 N.2       2 ALA2        0.0000 
@<TRIPOS>BOND
@<TRIPOS>SUBSTRUCTURE
     1 SER1       45 GROUP   
     2 ALA2        1 GROUP   
     3 LYS4      100 GROUP   
     4 PHE5        4 GROUP   
     5 GLY6        8 GROUP   
     6 CUB7        3 GROUP   
@<TRIPOS>SET

