#    Name: 2rfi_SAH_2_INTS_M
#    Modification time : Mon Mar 24 23:50:24 2014

@<TRIPOS>MOLECULE
2rfi_SAH_2_INTS_M
   52     0     9     0     0
SMALL
NO_CHARGES


@<TRIPOS>ATOM
      1 O          27.6990   63.1470   20.3305 O.2       1 ALC1        0.0000 
      2 O          26.4770   63.9410   20.0340 O.2       7 ALL1        0.0000 
      3 O          28.9210   62.3530   20.6270 O.2       4 ALP1        0.0000 
      4 O          26.9770   65.0230   20.6430 O.2       1 ALC1        0.0000 
      5 O          27.4770   66.1050   21.2520 O.2       4 ALP1        0.0000 
      6 O          27.3475   64.1210   18.8655 O.2       1 ALC1        0.0000 
      7 O          28.2180   64.3010   17.6970 O.2       4 ALP1        0.0000 
      8 CA         22.4710   60.9075   17.3990 C.3       3 GLC5        0.0000 
      9 CA         23.6390   62.3780   17.1350 C.3       9 GLL5        0.0000 
     10 CA         21.3030   59.4370   17.6630 C.3       6 GLP5        0.0000 
     11 N          26.9655   62.7665   22.7680 N.am      2 SEC2        0.0000 
     12 N          25.6980   62.6010   22.2910 N.am      8 SEL2        0.0000 
     13 N          28.2330   62.9320   23.2450 N.am      5 SEP2        0.0000 
     14 CA         24.3405   64.4170   14.4345 C.3       3 GLC5        0.0000 
     15 CA         23.7530   63.9680   16.2880 C.3       9 GLL5        0.0000 
     16 CA         24.9280   64.8660   12.5810 C.3       6 GLP5        0.0000 
     17 CA         22.3365   66.6200   14.6250 C.3       3 GLC5        0.0000 
     18 CA         22.9350   66.3440   16.5750 C.3       9 GLL5        0.0000 
     19 CA         21.7380   66.8960   12.6750 C.3       6 GLP5        0.0000 
     20 N          28.2485   66.1035   14.2490 N.am      2 SEC2        0.0000 
     21 N          27.5370   66.9540   15.2620 N.am      8 SEL2        0.0000 
     22 N          28.9600   65.2530   13.2360 N.am      5 SEP2        0.0000 
     23 CA         28.8065   66.3810   15.8925 C.3       3 GLC5        0.0000 
     24 CA         27.6110   68.2280   15.7170 C.3       9 GLL5        0.0000 
     25 CA         30.0020   64.5340   16.0680 C.3       6 GLP5        0.0000 
     26 CA         29.2160   70.5625   13.8795 C.3       3 GLC5        0.0000 
     27 CA         28.4160   69.3140   15.3690 C.3       9 GLL5        0.0000 
     28 CA         30.0160   71.8110   12.3900 C.3       6 GLP5        0.0000 
     29 O          30.1480   68.2120   13.6835 O.2       1 ALC1        0.0000 
     30 O          29.3380   69.2100   14.4130 O.2       7 ALL1        0.0000 
     31 O          30.9580   67.2140   12.9540 O.2       4 ALP1        0.0000 
     32 N          29.0885   71.6780   15.8035 N.am      2 SEC2        0.0000 
     33 N          28.2520   70.5160   16.0300 N.am      8 SEL2        0.0000 
     34 N          29.9250   72.8400   15.5770 N.am      5 SEP2        0.0000 
     35 CA         28.6970   69.6255   18.0535 C.3       3 GLC5        0.0000 
     36 CA         27.3000   70.6430   17.0270 C.3       9 GLL5        0.0000 
     37 CA         30.0940   68.6080   19.0800 C.3       6 GLP5        0.0000 
     38 CA         27.7690   71.9805   15.4660 C.3       3 GLC5        0.0000 
     39 CA         28.2380   73.3180   13.9050 C.3       6 GLP5        0.0000 
     40 CA         28.9910   71.7860   17.4710 C.3       3 GLC5        0.0000 
     41 CA         30.6820   72.9290   17.9150 C.3       6 GLP5        0.0000 
     42 CA         28.3750   68.4915   17.9020 C.3       3 GLC5        0.0000 
     43 CA         26.6560   68.3750   16.7240 C.3       9 GLL5        0.0000 
     44 CA         26.3500   60.2760   18.0365 C.3       3 GLC5        0.0000 
     45 CA         25.4250   62.2580   17.4100 C.3       9 GLL5        0.0000 
     46 CA         27.0920   58.4810   17.9450 C.3       6 GLP5        0.0000 
     47 CA         22.6677   68.3507   16.1678 C.3       3 GLC5        0.0000 
     48 CA         22.0630   69.7940   15.3870 C.3       6 GLP5        0.0000 
     49 CA         29.4417   68.3560   16.5700 C.3       3 GLC5        0.0000 
     50 CA         30.8700   67.9410   17.5970 C.3       6 GLP5        0.0000 
     51 CA         28.0562   67.8335   13.5840 C.3       3 GLC5        0.0000 
     52 CA         28.0990   66.8960   11.6250 C.3       6 GLP5        0.0000 
@<TRIPOS>BOND
@<TRIPOS>SUBSTRUCTURE
     1 ALC1        1 GROUP        1 X    ALC  0     ROOT ALC X 1
     2 SEC2       11 GROUP        1 X    SEC  0     **** SEC X 2
     3 GLC5        8 GROUP        1 X    GLC  0     **** GLC X 6
     4 ALP1        3 GROUP        1 Y    ALP  0     ROOT ALP Y 8
     5 SEP2       13 GROUP        1 Y    SEP  0     **** SEP Y 9
     6 GLP5       10 GROUP        1 Y    GLP  0     **** GLP Y 13
     7 ALL1        2 GROUP        1 Z    ALL  0     ROOT ALL Z 15
     8 SEL2       12 GROUP        1 Z    SEL  0     **** SEL Z 16
     9 GLL5        9 GROUP        1 Z    GLL  0     **** GLL Z 20
@<TRIPOS>SET

