#    Name: 2rfi_SAH_2_ligand
#    Modification time : Mon Mar 24 23:50:24 2014

@<TRIPOS>MOLECULE
2rfi_SAH_2_ligand
   46    48     1     0     0
SMALL
NO_CHARGES


@<TRIPOS>ATOM
      1 N          26.4770   63.9410   20.0340 N.4       1 SAH102      0.0000 
      2 CA         25.4070   62.9110   19.9130 C.3       1 SAH102      0.0000 
      3 CB         25.7910   61.8840   18.8460 C.3       1 SAH102      0.0000 
      4 CG         25.4250   62.2580   17.4100 C.3       1 SAH102      0.0000 
      5 SD         23.6390   62.3780   17.1350 S.3       1 SAH102      0.0000 
      6 C          25.1230   62.2410   21.2620 C.2       1 SAH102      0.0000 
      7 O          24.3070   61.3210   21.3620 O.co2     1 SAH102      0.0000 
      8 OXT        25.6980   62.6010   22.2910 O.co2     1 SAH102      0.0000 
      9 C5'        23.7530   63.9680   16.2880 C.3       1 SAH102      0.0000 
     10 C4'        23.4820   65.1030   17.2640 C.3       1 SAH102      0.0000 
     11 O4'        24.6940   65.4750   17.9050 O.3       1 SAH102      0.0000 
     12 C3'        22.9350   66.3440   16.5750 C.3       1 SAH102      0.0000 
     13 O3'        21.5320   66.4440   16.6820 O.3       1 SAH102      0.0000 
     14 C2'        23.6100   67.4710   17.3220 C.3       1 SAH102      0.0000 
     15 O2'        22.7980   67.8550   18.4110 O.3       1 SAH102      0.0000 
     16 C1'        24.9160   66.8690   17.8180 C.3       1 SAH102      0.0000 
     17 N9         26.0100   67.1670   16.8620 N.pl3     1 SAH102      0.0000 
     18 C8         26.5680   66.3050   15.9480 C.2       1 SAH102      0.0000 
     19 N7         27.5370   66.9540   15.2620 N.2       1 SAH102      0.0000 
     20 C5         27.6110   68.2280   15.7170 C.ar      1 SAH102      0.0000 
     21 C6         28.4160   69.3140   15.3690 C.ar      1 SAH102      0.0000 
     22 N6         29.3380   69.2100   14.4130 N.pl3     1 SAH102      0.0000 
     23 N1         28.2520   70.5160   16.0300 N.ar      1 SAH102      0.0000 
     24 C2         27.3000   70.6430   17.0270 C.ar      1 SAH102      0.0000 
     25 N3         26.5050   69.5650   17.3670 N.ar      1 SAH102      0.0000 
     26 C4         26.6560   68.3750   16.7240 C.ar      1 SAH102      0.0000 
     27 H          24.4852   63.4008   19.5820 H         1 SAH102      0.0000 
     28 H          25.3109   60.9159   19.0956 H         1 SAH102      0.0000 
     29 H          26.8845   61.7069   18.9005 H         1 SAH102      0.0000 
     30 H          25.7203   61.5184   16.6873 H         1 SAH102      0.0000 
     31 H          25.7688   63.2355   17.1221 H         1 SAH102      0.0000 
     32 H          23.0189   63.8758   15.5242 H         1 SAH102      0.0000 
     33 H          24.7466   63.9571   15.9094 H         1 SAH102      0.0000 
     34 H          22.7546   64.7713   17.9899 H         1 SAH102      0.0000 
     35 H          23.2969   66.3516   15.5729 H         1 SAH102      0.0000 
     36 H          23.8250   68.2492   16.6470 H         1 SAH102      0.0000 
     37 H          25.1314   67.2934   18.7756 H         1 SAH102      0.0000 
     38 H          26.3024   65.3861   15.8249 H         1 SAH102      0.0000 
     39 H          29.5359   70.0452   13.8999 H         1 SAH102      0.0000 
     40 H          29.7491   68.3062   14.2946 H         1 SAH102      0.0000 
     41 H          27.1848   71.5437   17.5160 H         1 SAH102      0.0000 
     42 H          26.2563   64.6259   20.7283 H         1 SAH102      0.0000 
     43 H          27.3549   63.5363   20.2901 H         1 SAH102      0.0000 
     44 H          26.6199   64.4309   19.1739 H         1 SAH102      0.0000 
     45 H          21.2496   66.9816   15.8875 H         1 SAH102      0.0000 
     46 H          21.8890   67.4990   18.1941 H         1 SAH102      0.0000 
@<TRIPOS>BOND
     1    2    1 1    
     2   42    1 1    
     3   43    1 1    
     4   44    1 1    
     5    3    2 1    
     6    6    2 1    
     7   27    2 1    
     8    4    3 1    
     9   28    3 1    
    10   29    3 1    
    11    5    4 1    
    12   30    4 1    
    13   31    4 1    
    14    9    5 1    
    15    7    6 ar   
    16    8    6 ar   
    17   10    9 1    
    18   32    9 1    
    19   33    9 1    
    20   11   10 1    
    21   12   10 1    
    22   34   10 1    
    23   16   11 1    
    24   13   12 1    
    25   14   12 1    
    26   35   12 1    
    27   45   13 1    
    28   15   14 1    
    29   16   14 1    
    30   36   14 1    
    31   46   15 1    
    32   17   16 1    
    33   37   16 1    
    34   18   17 1    
    35   26   17 1    
    36   19   18 2    
    37   38   18 1    
    38   20   19 1    
    39   21   20 ar   
    40   26   20 ar   
    41   22   21 1    
    42   23   21 ar   
    43   39   22 1    
    44   40   22 1    
    45   24   23 ar   
    46   25   24 ar   
    47   41   24 1    
    48   26   25 ar   
@<TRIPOS>SUBSTRUCTURE
     1 SAH102      1 GROUP   
@<TRIPOS>SET

