#    Name: 3nlb_5BE_1_INTS_M
#    Modification time : Tue Mar 25 01:46:55 2014

@<TRIPOS>MOLECULE
3nlb_5BE_1_INTS_M
   50     0     9     0     0
SMALL
NO_CHARGES


@<TRIPOS>ATOM
      1 CA          3.4345   -3.9925   20.9600 C.3       3 GLC5        0.0000 
      2 CA          3.6700   -2.6620   19.3270 C.3       9 GLL5        0.0000 
      3 CA          3.1990   -5.3230   22.5930 C.3       6 GLP5        0.0000 
      4 CA          5.5805   -4.8025   19.6715 C.3       3 GLC5        0.0000 
      5 CA          4.7070   -3.2970   18.6920 C.3       9 GLL5        0.0000 
      6 CA          6.4540   -6.3080   20.6510 C.3       6 GLP5        0.0000 
      7 CA          6.8335   -4.4570   19.5145 C.3       3 GLC5        0.0000 
      8 CA          7.2130   -2.6060   18.3780 C.3       9 GLL5        0.0000 
      9 CA          7.0960   -2.8725   20.3205 C.3       3 GLC5        0.0000 
     10 CA          6.9790   -3.1390   22.2630 C.3       6 GLP5        0.0000 
     11 CA          8.0190   -0.7575   17.9725 C.3       3 GLC5        0.0000 
     12 CA          8.8250    1.0910   17.5670 C.3       6 GLP5        0.0000 
     13 CA          9.1180   -3.0040   18.5790 C.3       3 GLC5        0.0000 
     14 CA         11.0230   -3.4020   18.7800 C.3       6 GLP5        0.0000 
     15 CA          5.7660   -1.8845   17.2515 C.3       3 GLC5        0.0000 
     16 CA          4.3190   -1.1630   16.1250 C.3       6 GLP5        0.0000 
     17 CA          2.9755   -3.9285   15.0305 C.3       3 GLC5        0.0000 
     18 CA          3.7260   -5.8370   15.1000 C.3       9 GLL5        0.0000 
     19 CA          2.2250   -2.0200   14.9610 C.3       6 GLP5        0.0000 
     20 OD1         1.4135   -7.2750   14.3505 O.co2     2 ASC3        0.0000 
     21 OD1         2.5360   -7.8150   14.2900 O.co2     8 ASL3        0.0000 
     22 OD1         0.2910   -6.7350   14.4110 O.co2     5 ASP3        0.0000 
     23 O           1.4135   -7.2750   14.3505 O.2       1 ALC1        0.0000 
     24 O           2.5360   -7.8150   14.2900 O.2       7 ALL1        0.0000 
     25 O           0.2910   -6.7350   14.4110 O.2       4 ALP1        0.0000 
     26 CA          4.0320  -10.1145   15.8880 C.3       3 GLC5        0.0000 
     27 CA          2.5760   -8.4380   15.6310 C.3       9 GLL5        0.0000 
     28 CA          5.4880  -11.7910   16.1450 C.3       6 GLP5        0.0000 
     29 CA          1.7260   -7.8075   11.5290 C.3       3 GLC5        0.0000 
     30 CA          2.4230   -8.9080   13.2610 C.3       9 GLL5        0.0000 
     31 CA          1.0290   -6.7070    9.7970 C.3       6 GLP5        0.0000 
     32 CA          5.5838   -3.0593   20.6363 C.3       3 GLC5        0.0000 
     33 CA          4.2538   -2.0713   17.5673 C.3       3 GLC5        0.0000 
     34 CA          2.5217   -9.3963   17.2530 C.3       3 GLC5        0.0000 
     35 CA          2.5490   -7.3310   16.7550 C.3       9 GLL5        0.0000 
     36 CA          2.4810  -10.9080   18.3130 C.3       6 GLP5        0.0000 
     37 CA         -0.8097   -2.5412   18.7925 C.3       3 GLC5        0.0000 
     38 CA          0.5230   -4.2500   19.3800 C.3       9 GLL5        0.0000 
     39 CA         -2.0570   -1.3890   17.8000 C.3       6 GLP5        0.0000 
     40 CA         -1.7195   -2.3723   19.2922 C.3       3 GLC5        0.0000 
     41 CA         -0.8520   -2.9200   20.8660 C.3       9 GLL5        0.0000 
     42 CA         -0.3917   -5.1461   21.7009 C.3       3 GLC5        0.0000 
     43 CA          0.7900   -6.1650   23.0790 C.3       6 GLP5        0.0000 
     44 CA         -1.6075   -3.2038   18.6630 C.3       3 GLC5        0.0000 
     45 CA         -1.7650   -4.8990   19.8610 C.3       9 GLL5        0.0000 
     46 CA          0.9416   -5.2469   20.7725 C.3       3 GLC5        0.0000 
     47 CA         -0.5510   -5.1380   19.1910 C.3       9 GLL5        0.0000 
     48 CA          1.9400   -6.0780   22.0570 C.3       6 GLP5        0.0000 
     49 CA         -2.9562   -2.4183   19.4150 C.3       3 GLC5        0.0000 
     50 CA         -3.2200   -3.4410   21.4630 C.3       9 GLL5        0.0000 
@<TRIPOS>BOND
@<TRIPOS>SUBSTRUCTURE
     1 ALC1       23 GROUP        1 X    ALC  0     ROOT ALC X 1
     2 ASC3       20 GROUP        1 X    ASC  0     **** ASC X 3
     3 GLC5        1 GROUP        1 X    GLC  0     **** GLC X 6
     4 ALP1       25 GROUP        1 Y    ALP  0     ROOT ALP Y 8
     5 ASP3       22 GROUP        1 Y    ASP  0     **** ASP Y 10
     6 GLP5        3 GROUP        1 Y    GLP  0     **** GLP Y 13
     7 ALL1       24 GROUP        1 Z    ALL  0     ROOT ALL Z 15
     8 ASL3       21 GROUP        1 Z    ASL  0     **** ASL Z 17
     9 GLL5        2 GROUP        1 Z    GLL  0     **** GLL Z 20
@<TRIPOS>SET

