#    Name: 3nlb_5BE_1_ligand
#    Modification time : Tue Mar 25 01:46:55 2014

@<TRIPOS>MOLECULE
3nlb_5BE_1_ligand
   57    60     1     0     0
SMALL
NO_CHARGES


@<TRIPOS>ATOM
      1 C1          3.7300   -6.9510   14.0550 C.3       1 5BE298      0.0000 
      2 C2          2.3510   -3.1240   19.4510 C.2       1 5BE298      0.0000 
      3 C3          3.6700   -2.6620   19.3270 C.2       1 5BE298      0.0000 
      4 C4          4.7070   -3.2970   18.6920 C.2       1 5BE298      0.0000 
      5 C5          5.7780   -2.4300   18.8880 C.2       1 5BE298      0.0000 
      6 N6          5.3830   -1.3940   19.6310 N.2       1 5BE298      0.0000 
      7 N7          4.1690   -1.5340   19.9110 N.pl3     1 5BE298      0.0000 
      8 C8          7.2130   -2.6060   18.3780 C.3       1 5BE298      0.0000 
      9 C9          4.8070   -4.5650   17.8180 C.2       1 5BE298      0.0000 
     10 O10         5.9050   -4.8480   17.3210 O.2       1 5BE298      0.0000 
     11 N11         3.7120   -5.2260   17.5000 N.am      1 5BE298      0.0000 
     12 C12         3.7480   -6.3780   16.5560 C.3       1 5BE298      0.0000 
     13 C13         3.7260   -5.8370   15.1000 C.3       1 5BE298      0.0000 
     14 N14         2.5360   -7.8150   14.2900 N.4       1 5BE298      0.0000 
     15 C15         2.5760   -8.4380   15.6310 C.3       1 5BE298      0.0000 
     16 C16         2.5490   -7.3310   16.7550 C.3       1 5BE298      0.0000 
     17 N17         1.4800   -2.4600   20.2030 N.2       1 5BE298      0.0000 
     18 N18         1.7740   -4.2170   18.9230 N.pl3     1 5BE298      0.0000 
     19 C19         0.5230   -4.2500   19.3800 C.ar      1 5BE298      0.0000 
     20 C20         0.3520   -3.1370   20.1900 C.ar      1 5BE298      0.0000 
     21 C21        -0.8520   -2.9200   20.8660 C.ar      1 5BE298      0.0000 
     22 C22        -1.9120   -3.7910   20.7030 C.ar      1 5BE298      0.0000 
     23 C23        -1.7650   -4.8990   19.8610 C.ar      1 5BE298      0.0000 
     24 C24        -0.5510   -5.1380   19.1910 C.ar      1 5BE298      0.0000 
     25 C25        -3.2200   -3.4410   21.4630 C.3       1 5BE298      0.0000 
     26 C26        -3.3260   -4.3640   22.7090 C.3       1 5BE298      0.0000 
     27 C27        -4.4910   -3.4540   20.5970 C.3       1 5BE298      0.0000 
     28 C28         2.4230   -8.9080   13.2610 C.3       1 5BE298      0.0000 
     29 H           4.6390   -7.5282   14.1602 H         1 5BE298      0.0000 
     30 H           3.6859   -6.5080   13.0690 H         1 5BE298      0.0000 
     31 H           3.5958   -0.9435   20.4720 H         1 5BE298      0.0000 
     32 H           2.7726   -4.9980   17.8737 H         1 5BE298      0.0000 
     33 H           4.6573   -6.9373   16.6803 H         1 5BE298      0.0000 
     34 H           2.8305   -5.2207   14.9730 H         1 5BE298      0.0000 
     35 H           4.6022   -5.1974   14.9549 H         1 5BE298      0.0000 
     36 H           1.6339   -7.1994   14.2223 H         1 5BE298      0.0000 
     37 H           3.4860   -9.0179   15.7696 H         1 5BE298      0.0000 
     38 H           1.7153   -9.0837   15.7918 H         1 5BE298      0.0000 
     39 H           1.6295   -6.7819   16.6699 H         1 5BE298      0.0000 
     40 H           2.6235   -7.8150   17.7113 H         1 5BE298      0.0000 
     41 H           2.1894   -4.8481   18.3311 H         1 5BE298      0.0000 
     42 H          -0.9425   -2.1027   21.4886 H         1 5BE298      0.0000 
     43 H          -2.5523   -5.5489   19.7280 H         1 5BE298      0.0000 
     44 H          -0.4518   -5.9433   18.5776 H         1 5BE298      0.0000 
     45 H          -3.0848   -2.4108   21.8597 H         1 5BE298      0.0000 
     46 H           7.7995   -1.8426   18.6485 H         1 5BE298      0.0000 
     47 H           7.6342   -3.4399   18.7346 H         1 5BE298      0.0000 
     48 H           7.2481   -2.6634   17.3803 H         1 5BE298      0.0000 
     49 H          -3.3513   -5.3306   22.4541 H         1 5BE298      0.0000 
     50 H          -2.5491   -4.2442   23.3271 H         1 5BE298      0.0000 
     51 H          -4.1535   -4.1789   23.2390 H         1 5BE298      0.0000 
     52 H          -4.4339   -2.7987   19.8438 H         1 5BE298      0.0000 
     53 H          -4.6548   -4.3532   20.1913 H         1 5BE298      0.0000 
     54 H          -5.3050   -3.2195   21.1285 H         1 5BE298      0.0000 
     55 H           3.2251   -9.5052   13.2640 H         1 5BE298      0.0000 
     56 H           1.6248   -9.4885   13.4219 H         1 5BE298      0.0000 
     57 H           2.3355   -8.5393   12.3356 H         1 5BE298      0.0000 
@<TRIPOS>BOND
     1   13    1 1    
     2   14    1 1    
     3   29    1 1    
     4   30    1 1    
     5    3    2 1    
     6   17    2 2    
     7   18    2 1    
     8    4    3 2    
     9    7    3 1    
    10    5    4 1    
    11    9    4 1    
    12    6    5 2    
    13    8    5 1    
    14    7    6 1    
    15   31    7 1    
    16   46    8 1    
    17   47    8 1    
    18   48    8 1    
    19   10    9 2    
    20   11    9 am   
    21   12   11 1    
    22   32   11 1    
    23   13   12 1    
    24   16   12 1    
    25   33   12 1    
    26   34   13 1    
    27   35   13 1    
    28   15   14 1    
    29   28   14 1    
    30   36   14 1    
    31   16   15 1    
    32   37   15 1    
    33   38   15 1    
    34   39   16 1    
    35   40   16 1    
    36   20   17 1    
    37   19   18 1    
    38   41   18 1    
    39   20   19 ar   
    40   24   19 ar   
    41   21   20 ar   
    42   22   21 ar   
    43   42   21 1    
    44   23   22 ar   
    45   25   22 1    
    46   24   23 ar   
    47   43   23 1    
    48   44   24 1    
    49   26   25 1    
    50   27   25 1    
    51   45   25 1    
    52   49   26 1    
    53   50   26 1    
    54   51   26 1    
    55   52   27 1    
    56   53   27 1    
    57   54   27 1    
    58   55   28 1    
    59   56   28 1    
    60   57   28 1    
@<TRIPOS>SUBSTRUCTURE
     1 5BE298      1 GROUP   
@<TRIPOS>SET

