#    Name: 2ore_SAH_2_INTS_M
#    Modification time : Mon Mar 24 17:49:11 2014

@<TRIPOS>MOLECULE
2ore_SAH_2_INTS_M
   69     0    12     0     0
SMALL
NO_CHARGES


@<TRIPOS>ATOM
      1 OD1       106.9030  -11.1495   53.4715 O.co2     3 ASC3        0.0000 
      2 OD1       105.3430  -10.1380   53.9450 O.co2    11 ASL3        0.0000 
      3 OD1       108.4630  -12.1610   52.9980 O.co2     7 ASP3        0.0000 
      4 OD1       104.9330   -8.6720   54.1600 O.co2     3 ASC3        0.0000 
      5 OD1       104.5230   -7.2060   54.3750 O.co2     7 ASP3        0.0000 
      6 O         105.6010  -10.8365   55.1865 O.2       1 ALC1        0.0000 
      7 O         105.3430  -10.1380   53.9450 O.2       9 ALL1        0.0000 
      8 O         105.8590  -11.5350   56.4280 O.2       5 ALP1        0.0000 
      9 O         104.9330   -8.6720   54.1600 O.2       1 ALC1        0.0000 
     10 O         104.5230   -7.2060   54.3750 O.2       5 ALP1        0.0000 
     11 CA        100.7910  -10.8665   54.1285 C.3       4 GLC5        0.0000 
     12 CA        102.8100   -9.9310   54.4420 C.3      12 GLL5        0.0000 
     13 CA         98.7720  -11.8020   53.8150 C.3       8 GLP5        0.0000 
     14 CA        104.3865  -10.3400   57.4695 C.3       4 GLC5        0.0000 
     15 CA        103.1340   -9.8820   55.9160 C.3      12 GLL5        0.0000 
     16 CA        105.6390  -10.7980   59.0230 C.3       8 GLP5        0.0000 
     17 CA        104.7465   -8.5760   55.9110 C.3       4 GLC5        0.0000 
     18 CA        106.3590   -7.2700   55.9060 C.3       8 GLP5        0.0000 
     19 CA        100.1335  -10.8145   55.1490 C.3       4 GLC5        0.0000 
     20 CA        101.4950   -9.8270   56.4830 C.3      12 GLL5        0.0000 
     21 N         104.8840  -11.4240   49.9830 N.am      2 SEC2        0.0000 
     22 N         104.6640  -10.4440   51.1610 N.am     10 SEL2        0.0000 
     23 N         105.1040  -12.4040   48.8050 N.am      6 SEP2        0.0000 
     24 N         104.1280  -10.3390   49.8805 N.am      2 SEC2        0.0000 
     25 N         103.5920  -10.2340   48.6000 N.am      6 SEP2        0.0000 
     26 N         102.1715  -11.9985   51.9215 N.am      2 SEC2        0.0000 
     27 N         102.4750  -10.4540   51.3920 N.am     10 SEL2        0.0000 
     28 N         101.8680  -13.5430   52.4510 N.am      6 SEP2        0.0000 
     29 N         103.0335  -10.3440   49.9960 N.am      2 SEC2        0.0000 
     30 CA        101.2755   -8.7370   60.0430 C.3       4 GLC5        0.0000 
     31 CA        101.6860   -9.8360   58.2040 C.3      12 GLL5        0.0000 
     32 CA        100.8650   -7.6380   61.8820 C.3       8 GLP5        0.0000 
     33 CA         99.3110  -13.2850   57.4420 C.3       4 GLC5        0.0000 
     34 CA        100.5100  -12.1160   58.7230 C.3      12 GLL5        0.0000 
     35 CA         98.1120  -14.4540   56.1610 C.3       8 GLP5        0.0000 
     36 N          99.8245  -12.7930   56.4490 N.am      2 SEC2        0.0000 
     37 N         100.6990  -13.2210   57.8430 N.am     10 SEL2        0.0000 
     38 N          98.9500  -12.3650   55.0550 N.am      6 SEP2        0.0000 
     39 O         101.7295  -14.0510   58.1140 O.2       1 ALC1        0.0000 
     40 O         100.6990  -13.2210   57.8430 O.2       9 ALL1        0.0000 
     41 O         102.7600  -14.8810   58.3850 O.2       5 ALP1        0.0000 
     42 O         100.7635  -14.9215   60.1650 O.2       1 ALC1        0.0000 
     43 O          99.7470  -13.8640   60.3150 O.2       9 ALL1        0.0000 
     44 O         101.7800  -15.9790   60.0150 O.2       5 ALP1        0.0000 
     45 CA        103.4380  -11.2905   61.1710 C.3       4 GLC5        0.0000 
     46 CA        101.6390  -12.2880   60.8920 C.3      12 GLL5        0.0000 
     47 CA        105.2370  -10.2930   61.4500 C.3       8 GLP5        0.0000 
     48 N         106.2505  -13.2990   65.1885 N.am      2 SEC2        0.0000 
     49 N         104.7670  -12.9980   64.8020 N.am     10 SEL2        0.0000 
     50 N         107.7340  -13.6000   65.5750 N.am      6 SEP2        0.0000 
     51 CA        104.8325  -15.0105   61.9880 C.3       4 GLC5        0.0000 
     52 CA        104.9670  -13.3420   63.4850 C.3      12 GLL5        0.0000 
     53 CA        104.6980  -16.6790   60.4910 C.3       8 GLP5        0.0000 
     54 CA        103.3845  -14.5305   63.8915 C.3       4 GLC5        0.0000 
     55 CA        101.8020  -15.7190   64.2980 C.3       8 GLP5        0.0000 
     56 CA        105.8100  -14.4265   65.0295 C.3       4 GLC5        0.0000 
     57 CA        106.6530  -15.5110   66.5740 C.3       8 GLP5        0.0000 
     58 CA        106.8855  -13.0815   64.2280 C.3       4 GLC5        0.0000 
     59 CA        108.8040  -12.8210   64.9710 C.3       8 GLP5        0.0000 
     60 CA        101.7165  -13.8175   63.2715 C.3       4 GLC5        0.0000 
     61 CA        102.8540  -12.4530   62.9710 C.3      12 GLL5        0.0000 
     62 CA        100.5790  -15.1820   63.5720 C.3       8 GLP5        0.0000 
     63 CA        102.9617  -11.7712   54.3568 C.3       4 GLC5        0.0000 
     64 CA        102.5730  -13.4940   54.7680 C.3       8 GLP5        0.0000 
     65 CA        102.4437  -11.6742   55.4838 C.3       4 GLC5        0.0000 
     66 CA        103.6800  -10.6805   58.7645 C.3       4 GLC5        0.0000 
     67 CA        100.7645  -13.7967   62.0640 C.3       4 GLC5        0.0000 
     68 CA        102.4528  -13.9705   64.5378 C.3       4 GLC5        0.0000 
     69 CA        102.5910  -12.0760   64.2810 C.3      12 GLL5        0.0000 
@<TRIPOS>BOND
@<TRIPOS>SUBSTRUCTURE
     1 ALC1        6 GROUP        1 X    ALC  0     ROOT ALC X 1
     2 SEC2       21 GROUP        1 X    SEC  0     **** SEC X 2
     3 ASC3        1 GROUP        1 X    ASC  0     **** ASC X 3
     4 GLC5       11 GROUP        1 X    GLC  0     **** GLC X 6
     5 ALP1        8 GROUP        1 Y    ALP  0     ROOT ALP Y 8
     6 SEP2       23 GROUP        1 Y    SEP  0     **** SEP Y 9
     7 ASP3        3 GROUP        1 Y    ASP  0     **** ASP Y 10
     8 GLP5       13 GROUP        1 Y    GLP  0     **** GLP Y 13
     9 ALL1        7 GROUP        1 Z    ALL  0     ROOT ALL Z 15
    10 SEL2       22 GROUP        1 Z    SEL  0     **** SEL Z 16
    11 ASL3        2 GROUP        1 Z    ASL  0     **** ASL Z 17
    12 GLL5       12 GROUP        1 Z    GLL  0     **** GLL Z 20
@<TRIPOS>SET

