#    Name: 2ore_SAH_2_ligand
#    Modification time : Mon Mar 24 17:49:11 2014

@<TRIPOS>MOLECULE
2ore_SAH_2_ligand
   46    48     1     0     0
SMALL
NO_CHARGES


@<TRIPOS>ATOM
      1 N         105.3430  -10.1380   53.9450 N.4       1 SAH302      0.0000 
      2 CA        103.8910  -10.1660   53.4490 C.3       1 SAH302      0.0000 
      3 CB        102.8100   -9.9310   54.4420 C.3       1 SAH302      0.0000 
      4 CG        103.1340   -9.8820   55.9160 C.3       1 SAH302      0.0000 
      5 SD        101.4950   -9.8270   56.4830 S.3       1 SAH302      0.0000 
      6 C         103.6550  -10.2570   51.8820 C.2       1 SAH302      0.0000 
      7 O         104.6640  -10.4440   51.1610 O.co2     1 SAH302      0.0000 
      8 OXT       102.4750  -10.4540   51.3920 O.co2     1 SAH302      0.0000 
      9 C5'       101.6860   -9.8360   58.2040 C.3       1 SAH302      0.0000 
     10 C4'       101.7560  -11.2900   58.8080 C.3       1 SAH302      0.0000 
     11 O4'       101.9810  -11.0570   60.1840 O.3       1 SAH302      0.0000 
     12 C3'       100.5100  -12.1160   58.7230 C.3       1 SAH302      0.0000 
     13 O3'       100.6990  -13.2210   57.8430 O.3       1 SAH302      0.0000 
     14 C2'       100.2610  -12.5350   60.2200 C.3       1 SAH302      0.0000 
     15 O2'        99.7470  -13.8640   60.3150 O.3       1 SAH302      0.0000 
     16 C1'       101.6390  -12.2880   60.8920 C.3       1 SAH302      0.0000 
     17 N9        101.7110  -12.0720   62.2110 N.pl3     1 SAH302      0.0000 
     18 C8        100.8760  -11.4850   63.1560 C.2       1 SAH302      0.0000 
     19 N7        101.3210  -11.4560   64.3740 N.2       1 SAH302      0.0000 
     20 C5        102.5910  -12.0760   64.2810 C.ar      1 SAH302      0.0000 
     21 C6        103.6160  -12.3680   65.2740 C.ar      1 SAH302      0.0000 
     22 N6        103.4870  -12.0520   66.5750 N.pl3     1 SAH302      0.0000 
     23 N1        104.7670  -12.9980   64.8020 N.ar      1 SAH302      0.0000 
     24 C2        104.9670  -13.3420   63.4850 C.ar      1 SAH302      0.0000 
     25 N3        104.0010  -13.0730   62.5230 N.ar      1 SAH302      0.0000 
     26 C4        102.8540  -12.4530   62.9710 C.ar      1 SAH302      0.0000 
     27 H         103.8314  -11.5578   53.5863 H         1 SAH302      0.0000 
     28 H         101.9999  -10.7139   54.2905 H         1 SAH302      0.0000 
     29 H         102.2715   -8.9668   54.1727 H         1 SAH302      0.0000 
     30 H         103.5305   -8.9921   56.2125 H         1 SAH302      0.0000 
     31 H         103.4943  -10.7625   56.2793 H         1 SAH302      0.0000 
     32 H         100.8353   -9.3012   58.5810 H         1 SAH302      0.0000 
     33 H         102.5965   -9.2976   58.3855 H         1 SAH302      0.0000 
     34 H         102.5866  -11.7883   58.3751 H         1 SAH302      0.0000 
     35 H          99.7015  -11.4746   58.4454 H         1 SAH302      0.0000 
     36 H          99.5819  -11.7824   60.6139 H         1 SAH302      0.0000 
     37 H         102.2988  -13.0523   60.4924 H         1 SAH302      0.0000 
     38 H          99.9743  -11.1122   62.8615 H         1 SAH302      0.0000 
     39 H         102.6448  -11.5776   66.8312 H         1 SAH302      0.0000 
     40 H         104.2448  -12.3197   67.1701 H         1 SAH302      0.0000 
     41 H         105.8484  -13.8085   63.2003 H         1 SAH302      0.0000 
     42 H         105.9920  -10.3103   53.2040 H         1 SAH302      0.0000 
     43 H         105.5821   -9.2528   54.3441 H         1 SAH302      0.0000 
     44 H         105.5091  -10.8305   54.6470 H         1 SAH302      0.0000 
     45 H         101.5074  -13.6947   58.1925 H         1 SAH302      0.0000 
     46 H         100.5420  -14.4582   60.1929 H         1 SAH302      0.0000 
@<TRIPOS>BOND
     1    2    1 1    
     2   42    1 1    
     3   43    1 1    
     4   44    1 1    
     5    3    2 1    
     6    6    2 1    
     7   27    2 1    
     8    4    3 1    
     9   28    3 1    
    10   29    3 1    
    11    5    4 1    
    12   30    4 1    
    13   31    4 1    
    14    9    5 1    
    15    7    6 ar   
    16    8    6 ar   
    17   10    9 1    
    18   32    9 1    
    19   33    9 1    
    20   11   10 1    
    21   12   10 1    
    22   34   10 1    
    23   16   11 1    
    24   13   12 1    
    25   14   12 1    
    26   35   12 1    
    27   45   13 1    
    28   15   14 1    
    29   16   14 1    
    30   36   14 1    
    31   46   15 1    
    32   17   16 1    
    33   37   16 1    
    34   18   17 1    
    35   26   17 1    
    36   19   18 2    
    37   38   18 1    
    38   20   19 1    
    39   21   20 ar   
    40   26   20 ar   
    41   22   21 1    
    42   23   21 ar   
    43   39   22 1    
    44   40   22 1    
    45   24   23 ar   
    46   25   24 ar   
    47   41   24 1    
    48   26   25 ar   
@<TRIPOS>SUBSTRUCTURE
     1 SAH302      1 GROUP   
@<TRIPOS>SET

