#    Name: 4jqh_1MF_2_INTS_M
#    Modification time : Tue Mar 25 06:13:17 2014

@<TRIPOS>MOLECULE
4jqh_1MF_2_INTS_M
  125     0     9     0     0
SMALL
NO_CHARGES


@<TRIPOS>ATOM
      1 N         -32.6660  -11.8300  -11.6430 N.am      1 SEC2        0.0000 
      2 N         -32.0310  -12.6750  -10.5590 N.am      7 SEL2        0.0000 
      3 N         -33.3010  -10.9850  -12.7270 N.am      4 SEP2        0.0000 
      4 NZ        -31.6085  -13.3935   -7.6665 N.4       2 LYC4        0.0000 
      5 NZ        -30.8870  -13.2470   -8.7820 N.4       8 LYL4        0.0000 
      6 NZ        -33.3650  -12.7540   -6.3090 N.4       5 LYP4        0.0000 
      7 N         -29.5465  -12.9460   -8.2145 N.am      1 SEC2        0.0000 
      8 N         -30.8870  -13.2470   -8.7820 N.am      7 SEL2        0.0000 
      9 N         -28.2060  -12.6450   -7.6470 N.am      4 SEP2        0.0000 
     10 N         -31.6085  -13.3935   -7.6665 N.am      1 SEC2        0.0000 
     11 N         -32.3300  -13.5400   -6.5510 N.am      4 SEP2        0.0000 
     12 CA        -36.8970  -19.1285   -9.4955 C.3       3 GLC5        0.0000 
     13 CA        -34.8430  -18.5670   -8.9050 C.3       9 GLL5        0.0000 
     14 CA        -38.9510  -19.6900  -10.0860 C.3       6 GLP5        0.0000 
     15 CA        -37.7305  -18.9410   -8.1890 C.3       3 GLC5        0.0000 
     16 CA        -35.8190  -18.9160   -7.7850 C.3       9 GLL5        0.0000 
     17 CA        -39.6420  -18.9660   -8.5930 C.3       6 GLP5        0.0000 
     18 CA        -36.5220  -20.9625   -7.8705 C.3       3 GLC5        0.0000 
     19 CA        -37.2250  -23.0090   -7.9560 C.3       6 GLP5        0.0000 
     20 CA        -33.4455  -19.0720   -5.6510 C.3       3 GLC5        0.0000 
     21 CA        -35.3560  -18.4760   -6.3880 C.3       9 GLL5        0.0000 
     22 CA        -31.5350  -19.6680   -4.9140 C.3       6 GLP5        0.0000 
     23 CA        -35.2425  -15.8050   -7.4740 C.3       3 GLC5        0.0000 
     24 CA        -34.6920  -17.0880   -6.3170 C.3       9 GLL5        0.0000 
     25 CA        -35.7930  -14.5220   -8.6310 C.3       6 GLP5        0.0000 
     26 CA        -32.7550  -17.8215   -5.9770 C.3       3 GLC5        0.0000 
     27 CA        -30.8180  -18.5550   -5.6370 C.3       6 GLP5        0.0000 
     28 N         -35.5225  -18.0180   -3.2500 N.am      1 SEC2        0.0000 
     29 N         -34.6860  -17.3850   -3.9060 N.am      7 SEL2        0.0000 
     30 N         -36.3590  -18.6510   -2.5940 N.am      4 SEP2        0.0000 
     31 N         -34.4660  -16.6955   -2.8235 N.am      1 SEC2        0.0000 
     32 N         -34.2460  -16.0060   -1.7410 N.am      4 SEP2        0.0000 
     33 NZ        -32.9755  -14.6070   -5.6475 N.4       2 LYC4        0.0000 
     34 NZ        -33.6210  -15.6740   -4.7440 N.4       8 LYL4        0.0000 
     35 N         -33.9335  -15.8400   -3.2425 N.am      1 SEC2        0.0000 
     36 N         -33.6210  -15.6740   -4.7440 N.am      7 SEL2        0.0000 
     37 N         -33.9905  -14.4445   -5.1535 N.am      1 SEC2        0.0000 
     38 N         -34.3600  -13.2150   -5.5630 N.am      4 SEP2        0.0000 
     39 N         -32.9755  -14.6070   -5.6475 N.am      1 SEC2        0.0000 
     40 CA        -35.5590  -23.6465   -8.2335 C.3       3 GLC5        0.0000 
     41 CA        -33.8930  -24.2840   -8.5110 C.3       9 GLL5        0.0000 
     42 N         -33.8595  -21.9975  -12.4420 N.am      1 SEC2        0.0000 
     43 N         -32.7350  -22.7470  -11.6300 N.am      7 SEL2        0.0000 
     44 N         -34.9840  -21.2480  -13.2540 N.am      4 SEP2        0.0000 
     45 CA        -34.1025  -22.5435  -13.0495 C.3       3 GLC5        0.0000 
     46 CA        -32.1300  -23.0080  -12.9330 C.3       9 GLL5        0.0000 
     47 CA        -36.0750  -22.0790  -13.1660 C.3       6 GLP5        0.0000 
     48 CA        -28.4820  -20.1260  -14.8405 C.3       3 GLC5        0.0000 
     49 CA        -30.6030  -20.4810  -15.3370 C.3       9 GLL5        0.0000 
     50 CA        -26.3610  -19.7710  -14.3440 C.3       6 GLP5        0.0000 
     51 CA        -31.0230  -13.7480  -14.6615 C.3       3 GLC5        0.0000 
     52 CA        -30.1600  -15.6580  -14.7130 C.3       9 GLL5        0.0000 
     53 CA        -31.8860  -11.8380  -14.6100 C.3       6 GLP5        0.0000 
     54 CA        -28.4620  -12.8595  -19.0595 C.3       3 GLC5        0.0000 
     55 CA        -28.0480  -13.9900  -17.1760 C.3       9 GLL5        0.0000 
     56 CA        -28.8760  -11.7290  -20.9430 C.3       6 GLP5        0.0000 
     57 CA        -26.6655  -12.5485  -20.4350 C.3       3 GLC5        0.0000 
     58 CA        -25.8390  -13.3300  -18.7530 C.3       9 GLL5        0.0000 
     59 CA        -27.4920  -11.7670  -22.1170 C.3       6 GLP5        0.0000 
     60 CA        -26.8325  -14.0715  -20.5910 C.3       3 GLC5        0.0000 
     61 CA        -26.1890  -14.6670  -18.5780 C.3       9 GLL5        0.0000 
     62 CA        -27.4760  -13.4760  -22.6040 C.3       6 GLP5        0.0000 
     63 CA        -27.0755  -16.1775  -15.9800 C.3       3 GLC5        0.0000 
     64 CA        -27.2880  -14.9900  -17.7900 C.3       9 GLL5        0.0000 
     65 CA        -26.8630  -17.3650  -14.1700 C.3       6 GLP5        0.0000 
     66 CA        -30.4847  -15.0830  -10.8470 C.3       3 GLC5        0.0000 
     67 CA        -32.8960  -15.5040  -10.8140 C.3       9 GLL5        0.0000 
     68 CA        -28.5400  -14.9120  -11.3460 C.3       6 GLP5        0.0000 
     69 CA        -34.5425  -15.5255  -11.8955 C.3       3 GLC5        0.0000 
     70 CA        -36.0480  -14.8570  -12.9520 C.3       6 GLP5        0.0000 
     71 CA        -34.2984  -15.2955   -9.6185 C.3       3 GLC5        0.0000 
     72 CA        -33.1780  -16.8840  -10.8640 C.3       9 GLL5        0.0000 
     73 CA        -30.0052  -15.7402  -10.1857 C.3       3 GLC5        0.0000 
     74 CA        -31.3280  -15.8820   -9.0020 C.3       9 GLL5        0.0000 
     75 CA        -30.0007  -16.6602   -7.6107 C.3       3 GLC5        0.0000 
     76 CA        -28.5310  -16.7520   -6.1960 C.3       6 GLP5        0.0000 
     77 CA        -31.1442  -17.5617   -7.3312 C.3       3 GLC5        0.0000 
     78 CA        -30.5451  -19.1868   -9.6534 C.3       3 GLC5        0.0000 
     79 CA        -31.6130  -17.2550   -9.0490 C.3       9 GLL5        0.0000 
     80 CA        -28.6570  -19.9810   -9.5690 C.3       6 GLP5        0.0000 
     81 CA        -35.5620  -16.6318   -8.4880 C.3       3 GLC5        0.0000 
     82 CA        -36.4990  -16.8385   -5.7748 C.3       3 GLC5        0.0000 
     83 CA        -37.9740  -15.8950   -5.1970 C.3       6 GLP5        0.0000 
     84 CA        -35.4642  -22.2293   -8.4078 C.3       3 GLC5        0.0000 
     85 CA        -34.2970  -20.9650   -8.8520 C.3       9 GLL5        0.0000 
     86 CA        -32.3077  -24.7797   -8.0085 C.3       3 GLC5        0.0000 
     87 CA        -33.4340  -23.3270   -9.4030 C.3       9 GLL5        0.0000 
     88 CA        -30.9520  -25.7540   -7.0600 C.3       6 GLP5        0.0000 
     89 CA        -32.5173  -25.7490   -8.3382 C.3       3 GLC5        0.0000 
     90 CA        -34.1740  -25.5710   -8.9480 C.3       9 GLL5        0.0000 
     91 CA        -34.2917  -27.7285   -9.4313 C.3       3 GLC5        0.0000 
     92 CA        -34.5010  -29.7130   -9.2460 C.3       6 GLP5        0.0000 
     93 CA        -31.4922  -24.6792   -9.9832 C.3       3 GLC5        0.0000 
     94 CA        -33.5070  -24.9760  -11.1870 C.3       9 GLL5        0.0000 
     95 CA        -29.6160  -25.0300   -9.0000 C.3       6 GLP5        0.0000 
     96 CA        -29.4525  -22.4220  -13.3790 C.3       3 GLC5        0.0000 
     97 CA        -31.0280  -21.7230  -14.8340 C.3       9 GLL5        0.0000 
     98 CA        -27.5770  -23.0950  -12.5540 C.3       6 GLP5        0.0000 
     99 CA        -32.6908  -21.1250  -16.1282 C.3       3 GLC5        0.0000 
    100 CA        -34.5660  -21.1480  -17.1710 C.3       6 GLP5        0.0000 
    101 CA        -28.9488  -21.6710  -15.8807 C.3       3 GLC5        0.0000 
    102 CA        -27.0820  -22.2400  -16.6760 C.3       6 GLP5        0.0000 
    103 CA        -31.2197  -23.7721  -15.0234 C.3       3 GLC5        0.0000 
    104 CA        -30.9860  -25.4870  -16.0030 C.3       6 GLP5        0.0000 
    105 CA        -31.5648  -16.6220  -16.1517 C.3       3 GLC5        0.0000 
    106 CA        -30.5710  -16.9120  -14.2520 C.3       9 GLL5        0.0000 
    107 CA        -32.7640  -16.9590  -17.8210 C.3       6 GLP5        0.0000 
    108 CA        -28.6142  -16.8250  -14.3262 C.3       3 GLC5        0.0000 
    109 CA        -29.4528  -15.5985  -12.9142 C.3       3 GLC5        0.0000 
    110 CA        -31.1035  -16.5297  -17.0825 C.3       3 GLC5        0.0000 
    111 CA        -29.5360  -15.5270  -15.9590 C.3       9 GLL5        0.0000 
    112 CA        -28.1530  -16.7327  -15.2570 C.3       3 GLC5        0.0000 
    113 CA        -29.3500  -16.6740  -16.7290 C.3       9 GLL5        0.0000 
    114 CA        -31.4624  -17.6324  -16.6803 C.3       3 GLC5        0.0000 
    115 CA        -29.7540  -17.9280  -16.2750 C.3       9 GLL5        0.0000 
    116 CA        -28.5119  -17.8354  -14.8547 C.3       3 GLC5        0.0000 
    117 CA        -28.0192  -11.4450  -18.9827 C.3       3 GLC5        0.0000 
    118 CA        -27.6910  -12.6530  -17.3570 C.3       9 GLL5        0.0000 
    119 CA        -28.8980  -10.4000  -20.2140 C.3       6 GLP5        0.0000 
    120 CA        -25.6814  -11.6995  -17.2016 C.3       3 GLC5        0.0000 
    121 CA        -24.8730  -10.4890  -16.1510 C.3       6 GLP5        0.0000 
    122 CA        -24.8810  -14.8321  -17.8589 C.3       3 GLC5        0.0000 
    123 CA        -23.1110  -15.1700  -17.4900 C.3       6 GLP5        0.0000 
    124 CA        -35.4935  -24.4235  -10.2148 C.3       3 GLC5        0.0000 
    125 CA        -37.2360  -23.8550  -10.3060 C.3       6 GLP5        0.0000 
@<TRIPOS>BOND
@<TRIPOS>SUBSTRUCTURE
     1 SEC2        1 GROUP        1 X    SEC  0     ROOT SEC X 2
     2 LYC4        4 GROUP        1 X    LYC  0     **** LYC X 4
     3 GLC5       12 GROUP        1 X    GLC  0     **** GLC X 6
     4 SEP2        3 GROUP        1 Y    SEP  0     ROOT SEP Y 9
     5 LYP4        6 GROUP        1 Y    LYP  0     **** LYP Y 11
     6 GLP5       14 GROUP        1 Y    GLP  0     **** GLP Y 13
     7 SEL2        2 GROUP        1 Z    SEL  0     ROOT SEL Z 16
     8 LYL4        5 GROUP        1 Z    LYL  0     **** LYL Z 18
     9 GLL5       13 GROUP        1 Z    GLL  0     **** GLL Z 20
@<TRIPOS>SET

