#    Name: 4jqh_1MF_2_ligand
#    Modification time : Tue Mar 25 06:13:17 2014

@<TRIPOS>MOLECULE
4jqh_1MF_2_ligand
   85    89     1     0     0
SMALL
NO_CHARGES


@<TRIPOS>ATOM
      1 OAD       -32.0310  -12.6750  -10.5590 O.co2     1 1MF201      0.0000 
      2 CBK       -31.6120  -13.5470   -9.7520 C.2       1 1MF201      0.0000 
      3 OAB       -30.8870  -13.2470   -8.7820 O.co2     1 1MF201      0.0000 
      4 CBP       -31.9630  -15.0040   -9.8820 C.ar      1 1MF201      0.0000 
      5 CAU       -32.8960  -15.5040  -10.8140 C.ar      1 1MF201      0.0000 
      6 CAM       -33.1780  -16.8840  -10.8640 C.ar      1 1MF201      0.0000 
      7 CAT       -31.3280  -15.8820   -9.0020 C.ar      1 1MF201      0.0000 
      8 CAL       -31.6130  -17.2550   -9.0490 C.ar      1 1MF201      0.0000 
      9 CBM       -32.5380  -17.7670   -9.9700 C.ar      1 1MF201      0.0000 
     10 CBG       -32.7910  -19.2740   -9.9660 C.3       1 1MF201      0.0000 
     11 NBU       -34.1690  -19.6810   -9.5960 N.4       1 1MF201      0.0000 
     12 CBD       -34.8430  -18.5670   -8.9050 C.3       1 1MF201      0.0000 
     13 CBA       -35.8190  -18.9160   -7.7850 C.3       1 1MF201      0.0000 
     14 CAZ       -35.3560  -18.4760   -6.3880 C.3       1 1MF201      0.0000 
     15 CBB       -34.6920  -17.0880   -6.3170 C.3       1 1MF201      0.0000 
     16 CBJ       -34.3200  -16.6950   -4.8960 C.2       1 1MF201      0.0000 
     17 OAC       -34.6860  -17.3850   -3.9060 O.co2     1 1MF201      0.0000 
     18 OAA       -33.6210  -15.6740   -4.7440 O.co2     1 1MF201      0.0000 
     19 CBE       -34.2970  -20.9650   -8.8520 C.3       1 1MF201      0.0000 
     20 CBC       -33.1100  -21.9340   -8.8670 C.3       1 1MF201      0.0000 
     21 CBS       -33.4340  -23.3270   -9.4030 C.ar      1 1MF201      0.0000 
     22 CAP       -33.8930  -24.2840   -8.5110 C.ar      1 1MF201      0.0000 
     23 CAH       -34.1740  -25.5710   -8.9480 C.ar      1 1MF201      0.0000 
     24 CAI       -33.9910  -25.9170  -10.2850 C.ar      1 1MF201      0.0000 
     25 CAQ       -33.5070  -24.9760  -11.1870 C.ar      1 1MF201      0.0000 
     26 CBT       -33.2300  -23.6810  -10.7460 C.ar      1 1MF201      0.0000 
     27 OBH       -32.7350  -22.7470  -11.6300 O.3       1 1MF201      0.0000 
     28 CBF       -32.1300  -23.0080  -12.9330 C.3       1 1MF201      0.0000 
     29 CBL       -31.6280  -21.7750  -13.5740 C.ar      1 1MF201      0.0000 
     30 CAO       -31.7990  -20.6070  -12.8450 C.ar      1 1MF201      0.0000 
     31 CAW       -31.3770  -19.3840  -13.3340 C.ar      1 1MF201      0.0000 
     32 CBQ       -30.7670  -19.3090  -14.5760 C.ar      1 1MF201      0.0000 
     33 CAV       -30.6030  -20.4810  -15.3370 C.ar      1 1MF201      0.0000 
     34 CAN       -31.0280  -21.7230  -14.8340 C.ar      1 1MF201      0.0000 
     35 CBR       -30.3680  -18.0580  -15.0320 C.ar      1 1MF201      0.0000 
     36 CAY       -30.5710  -16.9120  -14.2520 C.ar      1 1MF201      0.0000 
     37 CAS       -30.1600  -15.6580  -14.7130 C.ar      1 1MF201      0.0000 
     38 CBO       -29.5360  -15.5270  -15.9590 C.ar      1 1MF201      0.0000 
     39 CAR       -29.3500  -16.6740  -16.7290 C.ar      1 1MF201      0.0000 
     40 CAX       -29.7540  -17.9280  -16.2750 C.ar      1 1MF201      0.0000 
     41 OBI       -29.1480  -14.2770  -16.3950 O.3       1 1MF201      0.0000 
     42 CBN       -28.0480  -13.9900  -17.1760 C.ar      1 1MF201      0.0000 
     43 CAJ       -27.6910  -12.6530  -17.3570 C.ar      1 1MF201      0.0000 
     44 CAF       -26.5900  -12.3270  -18.1460 C.ar      1 1MF201      0.0000 
     45 CAE       -25.8390  -13.3300  -18.7530 C.ar      1 1MF201      0.0000 
     46 CAG       -26.1890  -14.6670  -18.5780 C.ar      1 1MF201      0.0000 
     47 CAK       -27.2880  -14.9900  -17.7900 C.ar      1 1MF201      0.0000 
     48 H         -33.3693  -14.8627  -11.4556 H         1 1MF201      0.0000 
     49 H         -33.8460  -17.2449  -11.5478 H         1 1MF201      0.0000 
     50 H         -30.6509  -15.5257   -8.3181 H         1 1MF201      0.0000 
     51 H         -31.1359  -17.8955   -8.3977 H         1 1MF201      0.0000 
     52 H         -32.0601  -19.7443   -9.2716 H         1 1MF201      0.0000 
     53 H         -32.5401  -19.6683  -10.9756 H         1 1MF201      0.0000 
     54 H         -34.7330  -19.8147  -10.5762 H         1 1MF201      0.0000 
     55 H         -35.3970  -17.9373   -9.6549 H         1 1MF201      0.0000 
     56 H         -34.0732  -17.8657   -8.4791 H         1 1MF201      0.0000 
     57 H         -35.9818  -20.0064   -7.7758 H         1 1MF201      0.0000 
     58 H         -36.7940  -18.4472   -7.9977 H         1 1MF201      0.0000 
     59 H         -34.6445  -19.2278   -5.9959 H         1 1MF201      0.0000 
     60 H         -36.2271  -18.4856   -5.7051 H         1 1MF201      0.0000 
     61 H         -35.3833  -16.3468   -6.7315 H         1 1MF201      0.0000 
     62 H         -33.7918  -17.0974   -6.9405 H         1 1MF201      0.0000 
     63 H         -35.1982  -21.5245   -9.2287 H         1 1MF201      0.0000 
     64 H         -34.5458  -20.7477   -7.7759 H         1 1MF201      0.0000 
     65 H         -32.7159  -22.0282   -7.8393 H         1 1MF201      0.0000 
     66 H         -32.3009  -21.4945   -9.4773 H         1 1MF201      0.0000 
     67 H         -34.0265  -24.0391   -7.5179 H         1 1MF201      0.0000 
     68 H         -34.5203  -26.2768   -8.2810 H         1 1MF201      0.0000 
     69 H         -34.2142  -26.8685  -10.6036 H         1 1MF201      0.0000 
     70 H         -33.3542  -25.2286  -12.1673 H         1 1MF201      0.0000 
     71 H         -32.8691  -23.4914  -13.6019 H         1 1MF201      0.0000 
     72 H         -31.2949  -23.7278  -12.8236 H         1 1MF201      0.0000 
     73 H         -32.2543  -20.6540  -11.9113 H         1 1MF201      0.0000 
     74 H         -31.5154  -18.5292  -12.7765 H         1 1MF201      0.0000 
     75 H         -30.1699  -20.4282  -16.2660 H         1 1MF201      0.0000 
     76 H         -30.8983  -22.5701  -15.3837 H         1 1MF201      0.0000 
     77 H         -31.0262  -16.9955  -13.3331 H         1 1MF201      0.0000 
     78 H         -30.3173  -14.8230  -14.1316 H         1 1MF201      0.0000 
     79 H         -28.9009  -16.5921  -17.6606 H         1 1MF201      0.0000 
     80 H         -29.5980  -18.7596  -16.8601 H         1 1MF201      0.0000 
     81 H         -28.2404  -11.9105  -16.9083 H         1 1MF201      0.0000 
     82 H         -26.3308  -11.3396  -18.2806 H         1 1MF201      0.0000 
     83 H         -25.0252  -13.0841  -19.3311 H         1 1MF201      0.0000 
     84 H         -25.6397  -15.4060  -19.0272 H         1 1MF201      0.0000 
     85 H         -27.5490  -15.9801  -17.6545 H         1 1MF201      0.0000 
@<TRIPOS>BOND
     1    2    1 ar   
     2    3    2 ar   
     3    4    2 1    
     4    5    4 ar   
     5    7    4 ar   
     6    6    5 ar   
     7   48    5 1    
     8    9    6 ar   
     9   49    6 1    
    10    8    7 ar   
    11   50    7 1    
    12    9    8 ar   
    13   51    8 1    
    14   10    9 1    
    15   11   10 1    
    16   52   10 1    
    17   53   10 1    
    18   12   11 1    
    19   19   11 1    
    20   54   11 1    
    21   13   12 1    
    22   55   12 1    
    23   56   12 1    
    24   14   13 1    
    25   57   13 1    
    26   58   13 1    
    27   15   14 1    
    28   59   14 1    
    29   60   14 1    
    30   16   15 1    
    31   61   15 1    
    32   62   15 1    
    33   17   16 ar   
    34   18   16 ar   
    35   20   19 1    
    36   63   19 1    
    37   64   19 1    
    38   21   20 1    
    39   65   20 1    
    40   66   20 1    
    41   22   21 ar   
    42   26   21 ar   
    43   23   22 ar   
    44   67   22 1    
    45   24   23 ar   
    46   68   23 1    
    47   25   24 ar   
    48   69   24 1    
    49   26   25 ar   
    50   70   25 1    
    51   27   26 1    
    52   28   27 1    
    53   29   28 1    
    54   71   28 1    
    55   72   28 1    
    56   30   29 ar   
    57   34   29 ar   
    58   31   30 ar   
    59   73   30 1    
    60   32   31 ar   
    61   74   31 1    
    62   33   32 ar   
    63   35   32 1    
    64   34   33 ar   
    65   75   33 1    
    66   76   34 1    
    67   36   35 ar   
    68   40   35 ar   
    69   37   36 ar   
    70   77   36 1    
    71   38   37 ar   
    72   78   37 1    
    73   39   38 ar   
    74   41   38 1    
    75   40   39 ar   
    76   79   39 1    
    77   80   40 1    
    78   42   41 1    
    79   43   42 ar   
    80   47   42 ar   
    81   44   43 ar   
    82   81   43 1    
    83   45   44 ar   
    84   82   44 1    
    85   46   45 ar   
    86   83   45 1    
    87   47   46 ar   
    88   84   46 1    
    89   85   47 1    
@<TRIPOS>SUBSTRUCTURE
     1 1MF201      1 GROUP   
@<TRIPOS>SET

