#    Name: 3KD6_2_CAVITY_N1_6.mol2
#    Modification time : Tue Mar 11 06:51:43 2014

@<TRIPOS>MOLECULE
3KD6_2_CAVITY_N1_6.mol2
  107     0     7     0     0
SMALL
NO_CHARGES


@<TRIPOS>ATOM
      1 NZ         47.3698   25.8503   41.4507 N.2       4 LYS4        0.0000 
      2 NZ         48.1278   24.6216   41.0435 N.2       4 LYS4        0.0000 
      3 O          48.8858   23.3929   40.6362 O.2       2 ALA2        0.0000 
      4 O          46.3314   24.9913   42.1094 O.2       2 ALA2        0.0000 
      5 O          47.0893   23.7627   41.7021 O.2       2 ALA2        0.0000 
      6 NZ         47.8473   22.5340   41.2949 N.2       4 LYS4        0.0000 
      7 O          43.7770   26.5897   43.5825 O.2       2 ALA2        0.0000 
      8 O          44.5349   25.3611   43.1753 O.2       2 ALA2        0.0000 
      9 O          46.0509   22.9037   42.3607 O.2       2 ALA2        0.0000 
     10 NZ         46.8088   21.6751   41.9535 N.2       4 LYS4        0.0000 
     11 N          42.7385   25.7308   44.2411 N.2       2 ALA2        0.0000 
     12 O          43.4965   24.5021   43.8339 O.2       2 ALA2        0.0000 
     13 O          44.2544   23.2734   43.4266 O.2       2 ALA2        0.0000 
     14 O          45.0124   22.0448   43.0194 O.2       2 ALA2        0.0000 
     15 O          45.7704   20.8161   42.6121 O.2       2 ALA2        0.0000 
     16 O          46.5283   19.5874   42.2049 O.2       2 ALA2        0.0000 
     17 NZ         47.2863   18.3588   41.7976 N.2       4 LYS4        0.0000 
     18 N          41.7000   24.8718   44.8998 N.2       2 ALA2        0.0000 
     19 N          42.4580   23.6432   44.4925 N.2       2 ALA2        0.0000 
     20 N          48.3936   25.4297   39.1002 N.2       2 ALA2        0.0000 
     21 NZ         46.5971   25.7994   40.1661 N.2       4 LYS4        0.0000 
     22 NZ         47.3551   24.5707   39.7588 N.2       4 LYS4        0.0000 
     23 NZ         48.1131   23.3421   39.3516 N.2       4 LYS4        0.0000 
     24 O          45.5587   24.9405   40.8247 O.2       2 ALA2        0.0000 
     25 NZ         46.3166   23.7118   40.4175 N.2       4 LYS4        0.0000 
     26 O          43.0043   26.5389   42.2979 O.2       2 ALA2        0.0000 
     27 O          43.7622   25.3102   41.8906 O.2       2 ALA2        0.0000 
     28 O          44.5202   24.0815   41.4833 O.2       2 ALA2        0.0000 
     29 O          45.2782   22.8529   41.0761 O.2       2 ALA2        0.0000 
     30 NZ         46.0361   21.6242   40.6688 N.2       4 LYS4        0.0000 
     31 CA         41.9658   25.6799   42.9565 C.3       6 GLY6        0.0000 
     32 O          42.7238   24.4512   42.5492 O.2       2 ALA2        0.0000 
     33 O          43.4817   23.2226   42.1420 O.2       2 ALA2        0.0000 
     34 O          44.2397   21.9939   41.7347 O.2       2 ALA2        0.0000 
     35 N          40.9273   24.8210   43.6151 N.2       2 ALA2        0.0000 
     36 CA         41.6853   23.5923   43.2079 C.3       6 GLY6        0.0000 
     37 N          42.4433   22.3636   42.8006 N.2       2 ALA2        0.0000 
     38 CA         47.6209   25.3788   37.8155 C.3       6 GLY6        0.0000 
     39 O          45.0665   26.9772   39.2887 O.2       2 ALA2        0.0000 
     40 NZ         45.8244   25.7485   38.8814 N.2       4 LYS4        0.0000 
     41 NZ         46.5824   24.5199   38.4742 N.2       4 LYS4        0.0000 
     42 NZ         47.3404   23.2912   38.0669 N.2       4 LYS4        0.0000 
     43 CA         44.0280   26.1183   39.9473 C.3       6 GLY6        0.0000 
     44 CA         44.7860   24.8896   39.5401 C.3       6 GLY6        0.0000 
     45 CA         45.5439   23.6609   39.1328 C.3       6 GLY6        0.0000 
     46 NZ         46.3019   22.4323   38.7255 N.2       4 LYS4        0.0000 
     47 CA         42.9895   25.2593   40.6059 C.3       6 GLY6        0.0000 
     48 O          41.9511   24.4004   41.2646 O.2       2 ALA2        0.0000 
     49 CA         46.8482   25.3280   36.5309 C.3       6 GLY6        0.0000 
     50 CA         45.0517   25.6977   37.5968 C.3       6 GLY6        0.0000 
     51 NZ         45.8097   24.4690   37.1895 N.2       4 LYS4        0.0000 
     52 CA         43.2553   26.0674   38.6627 C.3       6 GLY6        0.0000 
     53 CA         44.0133   24.8387   38.2554 C.3       6 GLY6        0.0000 
     54 CA         42.2168   25.2085   39.3213 C.3       6 GLY6        0.0000 
     55 CA         43.2406   24.7879   36.9707 C.3       6 GLY6        0.0000 
     56 CA         54.5310   21.9980   44.3017 C.3       6 GLY6        0.0000 
     57 CA         53.4925   21.1391   44.9603 C.3       6 GLY6        0.0000 
     58 CZ         54.2505   19.9104   44.5531 C.ar      5 PHE5        0.0000 
     59 CA         52.4541   20.2801   45.6190 C.3       6 GLY6        0.0000 
     60 CA         53.2120   19.0515   45.2117 C.3       6 GLY6        0.0000 
     61 CZ         54.5163   20.7185   42.6098 C.ar      5 PHE5        0.0000 
     62 CA         52.7198   21.0882   43.6757 C.3       6 GLY6        0.0000 
     63 CZ         53.4778   19.8595   43.2684 C.ar      5 PHE5        0.0000 
     64 CZ         54.2358   18.6309   42.8612 C.ar      5 PHE5        0.0000 
     65 CA         51.6814   20.2293   44.3343 C.3       6 GLY6        0.0000 
     66 CZ         52.4393   19.0006   43.9271 C.ar      5 PHE5        0.0000 
     67 CZ         53.1973   17.7719   43.5198 C.ar      5 PHE5        0.0000 
     68 CZ         49.8849   20.5990   45.4002 C.ar      5 PHE5        0.0000 
     69 CZ         50.6429   19.3703   44.9929 C.ar      5 PHE5        0.0000 
     70 NZ         51.4009   18.1416   44.5857 N.2       4 LYS4        0.0000 
     71 CZ         49.6044   18.5114   45.6516 C.ar      5 PHE5        0.0000 
     72 O          49.1958   28.0396   43.7687 O.2       2 ALA2        0.0000 
     73 O          48.1573   27.1807   44.4273 O.2       2 ALA2        0.0000 
     74 OG         52.7051   19.8087   41.9838 O.2       1 SER1        0.0000 
     75 O          46.3608   27.5504   45.4932 O.2       2 ALA2        0.0000 
     76 O          47.1188   26.3217   45.0859 O.2       2 ALA2        0.0000 
     77 CA         50.1507   21.4071   43.4569 C.3       6 GLY6        0.0000 
     78 O          50.9087   20.1784   43.0497 O.2       2 ALA2        0.0000 
     79 OG         51.6666   18.9497   42.6424 O.2       1 SER1        0.0000 
     80 O          45.3224   26.6915   46.1518 O.2       2 ALA2        0.0000 
     81 O          49.1122   20.5481   44.1155 O.2       2 ALA2        0.0000 
     82 DU         49.8702   19.3194   43.7083 H         7 CUB7        0.0000 
     83 CA         50.6282   18.0908   43.3010 C.3       6 GLY6        0.0000 
     84 CA         48.0737   19.6892   44.7742 C.3       6 GLY6        0.0000 
     85 NZ         48.8317   18.4605   44.3669 N.2       4 LYS4        0.0000 
     86 O          49.5897   17.2318   43.9597 O.2       2 ALA2        0.0000 
     87 O          47.3846   27.1298   43.1426 O.2       2 ALA2        0.0000 
     88 O          48.1425   25.9011   42.7354 O.2       2 ALA2        0.0000 
     89 O          48.9005   24.6725   42.3281 O.2       2 ALA2        0.0000 
     90 CA         49.6585   23.4438   41.9209 C.3       6 GLY6        0.0000 
     91 O          45.5881   27.4995   44.2085 O.2       2 ALA2        0.0000 
     92 O          46.3461   26.2709   43.8013 O.2       2 ALA2        0.0000 
     93 O          48.6200   22.5849   42.5795 O.2       2 ALA2        0.0000 
     94 O          49.3780   21.3562   42.1723 O.2       2 ALA2        0.0000 
     95 O          50.1359   20.1275   41.7650 O.2       2 ALA2        0.0000 
     96 O          44.5497   26.6406   44.8672 O.2       2 ALA2        0.0000 
     97 OD1        45.3076   25.4119   44.4599 O.3       3 ASP3        0.0000 
     98 NZ         48.3395   20.4972   42.8309 N.2       4 LYS4        0.0000 
     99 NZ         49.0975   19.2686   42.4236 N.2       4 LYS4        0.0000 
    100 O          49.8554   18.0399   42.0164 O.2       2 ALA2        0.0000 
    101 N          43.5112   25.7816   45.5258 N.2       2 ALA2        0.0000 
    102 O          44.2692   24.5530   45.1185 O.2       2 ALA2        0.0000 
    103 O          46.5431   20.8670   43.8968 O.2       2 ALA2        0.0000 
    104 O          47.3010   19.6383   43.4895 O.2       2 ALA2        0.0000 
    105 CZ         48.0590   18.4096   43.0823 C.ar      5 PHE5        0.0000 
    106 O          48.8170   17.1810   42.6750 O.2       2 ALA2        0.0000 
    107 CZ         47.0205   17.5507   43.7409 C.ar      5 PHE5        0.0000 
@<TRIPOS>BOND
@<TRIPOS>SUBSTRUCTURE
     1 SER1       74 GROUP   
     2 ALA2        3 GROUP   
     3 ASP3       97 GROUP   
     4 LYS4        1 GROUP   
     5 PHE5       58 GROUP   
     6 GLY6       31 GROUP   
     7 CUB7       82 GROUP   
@<TRIPOS>SET

