#    Name: 3kd6_AMP_2_INTS_M
#    Modification time : Mon Mar 24 19:16:56 2014

@<TRIPOS>MOLECULE
3kd6_AMP_2_INTS_M
   54     0    12     0     0
SMALL
NO_CHARGES


@<TRIPOS>ATOM
      1 N          44.8745   20.9390   39.4475 N.am      2 SEC2        0.0000 
      2 N          45.6980   21.0500   40.8250 N.am     10 SEL2        0.0000 
      3 N          44.0510   20.8280   38.0700 N.am      6 SEP2        0.0000 
      4 NZ         47.4590   23.2840   43.3470 N.4       3 LYC4        0.0000 
      5 NZ         47.1640   22.8640   41.9720 N.4      11 LYL4        0.0000 
      6 NZ         47.0220   23.5200   45.8170 N.4       7 LYP4        0.0000 
      7 N          47.4590   23.2840   43.3470 N.am      2 SEC2        0.0000 
      8 N          47.1640   22.8640   41.9720 N.am     10 SEL2        0.0000 
      9 N          47.7540   23.7040   44.7220 N.am      6 SEP2        0.0000 
     10 NZ         45.7560   22.0630   44.6155 N.4       3 LYC4        0.0000 
     11 NZ         45.4240   21.5470   43.3930 N.4      11 LYL4        0.0000 
     12 N          45.7560   22.0630   44.6155 N.am      2 SEC2        0.0000 
     13 N          45.4240   21.5470   43.3930 N.am     10 SEL2        0.0000 
     14 N          46.0880   22.5790   45.8380 N.am      6 SEP2        0.0000 
     15 N          46.5890   22.6255   44.0575 N.am      2 SEC2        0.0000 
     16 N          44.7345   20.2415   43.4190 N.am      2 SEC2        0.0000 
     17 N          44.0450   18.9360   43.4450 N.am      6 SEP2        0.0000 
     18 CA         46.6685   18.8365   44.7525 C.3       4 GLC5        0.0000 
     19 CA         47.6630   19.8990   43.3570 C.3      12 GLL5        0.0000 
     20 CA         45.6740   17.7740   46.1480 C.3       8 GLP5        0.0000 
     21 CA         45.7890   19.1290   42.7385 C.3       4 GLC5        0.0000 
     22 CA         43.9150   18.3590   42.1200 C.3       8 GLP5        0.0000 
     23 CA         47.4675   17.9000   45.2720 C.3       4 GLC5        0.0000 
     24 CA         49.2610   18.0260   44.3960 C.3      12 GLL5        0.0000 
     25 N          49.3570   15.6635   43.4370 N.am      2 SEC2        0.0000 
     26 N          48.7560   16.7010   44.2970 N.am     10 SEL2        0.0000 
     27 N          49.9580   14.6260   42.5770 N.am      6 SEP2        0.0000 
     28 O          48.7490   16.0780   45.3370 O.2       1 ALC1        0.0000 
     29 O          48.7560   16.7010   44.2970 O.2       9 ALL1        0.0000 
     30 O          48.7420   15.4550   46.3770 O.2       5 ALP1        0.0000 
     31 O          51.1715   16.2475   45.6405 O.2       1 ALC1        0.0000 
     32 O          51.4660   16.7840   44.4380 O.2       9 ALL1        0.0000 
     33 O          50.8770   15.7110   46.8430 O.2       5 ALP1        0.0000 
     34 N          55.8845   22.6340   40.5725 N.am      2 SEC2        0.0000 
     35 N          55.4010   21.2470   41.3890 N.am     10 SEL2        0.0000 
     36 N          56.3680   24.0210   39.7560 N.am      6 SEP2        0.0000 
     37 CA         54.5485   18.5030   40.5960 C.3       4 GLC5        0.0000 
     38 CA         54.5700   20.2880   40.8960 C.3      12 GLL5        0.0000 
     39 CA         54.5270   16.7180   40.2960 C.3       8 GLP5        0.0000 
     40 CA         53.1660   21.2770   39.4830 C.3       4 GLC5        0.0000 
     41 CA         51.7620   22.2660   38.0700 C.3       8 GLP5        0.0000 
     42 CA         55.9940   19.4555   39.7490 C.3       4 GLC5        0.0000 
     43 CA         57.4180   18.6230   38.6020 C.3       8 GLP5        0.0000 
     44 N          53.3640   18.4995   41.0890 N.am      2 SEC2        0.0000 
     45 N          53.5080   19.7970   41.5930 N.am     10 SEL2        0.0000 
     46 N          53.2200   17.2020   40.5850 N.am      6 SEP2        0.0000 
     47 CA         49.9713   18.4755   46.3023 C.3       4 GLC5        0.0000 
     48 CA         50.7960   18.0400   44.5130 C.3      12 GLL5        0.0000 
     49 CA         49.9140   18.9180   48.1500 C.3       8 GLP5        0.0000 
     50 CA         50.7556   16.8278   42.7546 C.3       4 GLC5        0.0000 
     51 CA         50.8660   15.1700   41.5810 C.3       8 GLP5        0.0000 
     52 CA         53.2699   22.5704   43.2378 C.3       4 GLC5        0.0000 
     53 CA         54.0820   21.2930   43.4760 C.3      12 GLL5        0.0000 
     54 CA         52.5970   24.2440   43.5170 C.3       8 GLP5        0.0000 
@<TRIPOS>BOND
@<TRIPOS>SUBSTRUCTURE
     1 ALC1       28 GROUP        1 X    ALC  0     ROOT ALC X 1
     2 SEC2        1 GROUP        1 X    SEC  0     **** SEC X 2
     3 LYC4        4 GROUP        1 X    LYC  0     **** LYC X 4
     4 GLC5       18 GROUP        1 X    GLC  0     **** GLC X 6
     5 ALP1       30 GROUP        1 Y    ALP  0     ROOT ALP Y 8
     6 SEP2        3 GROUP        1 Y    SEP  0     **** SEP Y 9
     7 LYP4        6 GROUP        1 Y    LYP  0     **** LYP Y 11
     8 GLP5       20 GROUP        1 Y    GLP  0     **** GLP Y 13
     9 ALL1       29 GROUP        1 Z    ALL  0     ROOT ALL Z 15
    10 SEL2        2 GROUP        1 Z    SEL  0     **** SEL Z 16
    11 LYL4        5 GROUP        1 Z    LYL  0     **** LYL Z 18
    12 GLL5       19 GROUP        1 Z    GLL  0     **** GLL Z 20
@<TRIPOS>SET

