#    Name: 3kd6_AMP_2_ligand
#    Modification time : Mon Mar 24 19:16:56 2014

@<TRIPOS>MOLECULE
3kd6_AMP_2_ligand
   35    37     1     0     0
SMALL
NO_CHARGES


@<TRIPOS>ATOM
      1 P          46.4650   21.4430   42.1730 P.3       1 AMP509      0.0000 
      2 O1P        45.6980   21.0500   40.8250 O.co2     1 AMP509      0.0000 
      3 O2P        47.1640   22.8640   41.9720 O.co2     1 AMP509      0.0000 
      4 O3P        45.4240   21.5470   43.3930 O.co2     1 AMP509      0.0000 
      5 O5'        47.5130   20.6550   42.1350 O.3       1 AMP509      0.0000 
      6 C5'        47.6630   19.8990   43.3570 C.3       1 AMP509      0.0000 
      7 C4'        48.8830   18.9570   43.2030 C.3       1 AMP509      0.0000 
      8 O4'        50.1250   19.5330   42.7420 O.3       1 AMP509      0.0000 
      9 C3'        49.2610   18.0260   44.3960 C.3       1 AMP509      0.0000 
     10 O3'        48.7560   16.7010   44.2970 O.3       1 AMP509      0.0000 
     11 C2'        50.7960   18.0400   44.5130 C.3       1 AMP509      0.0000 
     12 O2'        51.4660   16.7840   44.4380 O.3       1 AMP509      0.0000 
     13 C1'        51.2620   18.9380   43.4020 C.3       1 AMP509      0.0000 
     14 N9         52.2890   19.9820   43.7590 N.pl3     1 AMP509      0.0000 
     15 C8         52.4880   20.7440   44.8680 C.2       1 AMP509      0.0000 
     16 N7         53.5750   21.5490   44.7080 N.2       1 AMP509      0.0000 
     17 C5         54.0820   21.2930   43.4760 C.ar      1 AMP509      0.0000 
     18 C6         55.2190   21.7800   42.6400 C.ar      1 AMP509      0.0000 
     19 N6         56.0560   22.7290   43.1080 N.pl3     1 AMP509      0.0000 
     20 N1         55.4010   21.2470   41.3890 N.ar      1 AMP509      0.0000 
     21 C2         54.5700   20.2880   40.8960 C.ar      1 AMP509      0.0000 
     22 N3         53.5080   19.7970   41.5930 N.ar      1 AMP509      0.0000 
     23 C4         53.2350   20.2570   42.8590 C.ar      1 AMP509      0.0000 
     24 H          46.7930   19.2804   43.5592 H         1 AMP509      0.0000 
     25 H          47.8508   20.5438   44.2110 H         1 AMP509      0.0000 
     26 H          48.5815   18.1915   42.3764 H         1 AMP509      0.0000 
     27 H          48.8879   18.5323   45.3035 H         1 AMP509      0.0000 
     28 H          51.0339   18.5702   45.4481 H         1 AMP509      0.0000 
     29 H          51.7549   18.2583   42.6354 H         1 AMP509      0.0000 
     30 H          51.9301   20.7183   45.6676 H         1 AMP509      0.0000 
     31 H          55.8321   23.1096   44.0052 H         1 AMP509      0.0000 
     32 H          56.8259   22.9675   42.5160 H         1 AMP509      0.0000 
     33 H          54.7577   19.9063   39.9265 H         1 AMP509      0.0000 
     34 H          48.3275   16.5206   45.1823 H         1 AMP509      0.0000 
     35 H          51.2885   16.3432   45.3179 H         1 AMP509      0.0000 
@<TRIPOS>BOND
     1    2    1 ar   
     2    3    1 ar   
     3    4    1 ar   
     4    5    1 1    
     5    6    5 1    
     6    7    6 1    
     7   24    6 1    
     8   25    6 1    
     9    8    7 1    
    10    9    7 1    
    11   26    7 1    
    12   13    8 1    
    13   10    9 1    
    14   11    9 1    
    15   27    9 1    
    16   34   10 1    
    17   12   11 1    
    18   13   11 1    
    19   28   11 1    
    20   35   12 1    
    21   14   13 1    
    22   29   13 1    
    23   15   14 1    
    24   23   14 1    
    25   16   15 2    
    26   30   15 1    
    27   17   16 1    
    28   18   17 ar   
    29   23   17 ar   
    30   19   18 1    
    31   20   18 ar   
    32   31   19 1    
    33   32   19 1    
    34   21   20 ar   
    35   22   21 ar   
    36   33   21 1    
    37   23   22 ar   
@<TRIPOS>SUBSTRUCTURE
     1 AMP509      1 GROUP   
@<TRIPOS>SET

