#    Name: 4cew_7J5_1_INTS_M
#    Modification time : Tue Mar 25 09:19:58 2014

@<TRIPOS>MOLECULE
4cew_7J5_1_INTS_M
   80     0     6     0     0
SMALL
NO_CHARGES


@<TRIPOS>ATOM
      1 CA         94.6375  263.6820  105.3290 C.3       2 GLC5        0.0000 
      2 CA         95.0080  261.5500  105.2600 C.3       6 GLL5        0.0000 
      3 CA         94.2670  265.8140  105.3980 C.3       4 GLP5        0.0000 
      4 CA         93.3095  261.1005  104.8305 C.3       2 GLC5        0.0000 
      5 CA         91.6110  260.6510  104.4010 C.3       4 GLP5        0.0000 
      6 CA        109.8940  260.9490  102.4640 C.3       2 GLC5        0.0000 
      7 CA        108.3160  261.7320  101.6000 C.3       6 GLL5        0.0000 
      8 CA        111.4720  260.1660  103.3280 C.3       4 GLP5        0.0000 
      9 CA        109.0125  262.8955  103.1070 C.3       2 GLC5        0.0000 
     10 CA        109.7090  264.0590  104.6140 C.3       4 GLP5        0.0000 
     11 CA        102.5195  263.0675  105.5910 C.3       2 GLC5        0.0000 
     12 CA        101.8230  262.7760  103.6590 C.3       6 GLL5        0.0000 
     13 CA        103.2160  263.3590  107.5230 C.3       4 GLP5        0.0000 
     14 CA         98.7865  260.9145  101.4300 C.3       2 GLC5        0.0000 
     15 CA        100.6420  261.0980  102.2470 C.3       6 GLL5        0.0000 
     16 CA         96.9310  260.7310  100.6130 C.3       4 GLP5        0.0000 
     17 CA        100.2280  259.3240  102.8645 C.3       2 GLC5        0.0000 
     18 CA         99.8140  257.5500  103.4820 C.3       4 GLP5        0.0000 
     19 CA         96.5395  261.0635  102.4465 C.3       2 GLC5        0.0000 
     20 CA         96.1480  261.3960  104.2800 C.3       6 GLL5        0.0000 
     21 CA        105.6845  262.7490  102.7680 C.3       2 GLC5        0.0000 
     22 CA        105.3380  261.6670  101.2360 C.3       6 GLL5        0.0000 
     23 CA        106.0310  263.8310  104.3000 C.3       4 GLP5        0.0000 
     24 CA        104.7435  259.8890  102.1830 C.3       2 GLC5        0.0000 
     25 CA        104.1490  258.1110  103.1300 C.3       4 GLP5        0.0000 
     26 CA        106.1690  260.6675   98.2965 C.3       2 GLC5        0.0000 
     27 CA        106.3140  261.4730  100.0990 C.3       6 GLL5        0.0000 
     28 CA        106.0240  259.8620   96.4940 C.3       4 GLP5        0.0000 
     29 CA        109.0630  260.2505   99.0130 C.3       2 GLC5        0.0000 
     30 CA        108.4890  262.2200   99.1760 C.3       6 GLL5        0.0000 
     31 CA        109.6370  258.2810   98.8500 C.3       4 GLP5        0.0000 
     32 CA        107.2565  261.0410   97.8350 C.3       2 GLC5        0.0000 
     33 CA        109.1775  265.1440  100.2770 C.3       2 GLC5        0.0000 
     34 CA        109.2920  263.5130   99.0380 C.3       6 GLL5        0.0000 
     35 CA        109.0630  266.7750  101.5160 C.3       4 GLP5        0.0000 
     36 CA        111.4915  263.8830   99.1875 C.3       2 GLC5        0.0000 
     37 CA        113.6910  264.2530   99.3370 C.3       4 GLP5        0.0000 
     38 CA        111.5350  260.6240   97.5460 C.3       2 GLC5        0.0000 
     39 CA        110.9970  262.3130   97.4730 C.3       6 GLL5        0.0000 
     40 CA        112.0730  258.9350   97.6190 C.3       4 GLP5        0.0000 
     41 CA        112.3440  263.2830   98.4050 C.3       2 GLC5        0.0000 
     42 CA        112.5695  261.0730   96.6220 C.3       2 GLC5        0.0000 
     43 CA        111.7550  262.7870   96.2630 C.3       6 GLL5        0.0000 
     44 CA        113.3840  259.3590   96.9810 C.3       4 GLP5        0.0000 
     45 CA        112.7725  263.9450   97.2430 C.3       2 GLC5        0.0000 
     46 CA        113.7900  265.1030   98.2230 C.3       4 GLP5        0.0000 
     47 CA        111.3250  262.5050   94.5655 C.3       2 GLC5        0.0000 
     48 CA        110.8950  262.2230   92.8680 C.3       4 GLP5        0.0000 
     49 N         109.4940  266.9435   98.1640 N.am      1 SEC2        0.0000 
     50 N         110.0070  265.6420   97.2610 N.am      5 SEL2        0.0000 
     51 N         108.9810  268.2450   99.0670 N.am      3 SEP2        0.0000 
     52 CA         94.3515  262.4660  103.2205 C.3       2 GLC5        0.0000 
     53 CA         93.1250  263.4590  101.6710 C.3       4 GLP5        0.0000 
     54 CA         94.9645  261.4560  106.5845 C.3       2 GLC5        0.0000 
     55 CA         94.3510  261.4390  108.3990 C.3       4 GLP5        0.0000 
     56 CA        106.9875  262.9230  102.6435 C.3       2 GLC5        0.0000 
     57 CA        107.5720  262.2980  100.3740 C.3       6 GLL5        0.0000 
     58 CA        115.4320  264.6467   94.4433 C.3       2 GLC5        0.0000 
     59 CA        113.2810  264.6120   94.4970 C.3       6 GLL5        0.0000 
     60 CA        117.2430  264.2780   94.8670 C.3       4 GLP5        0.0000 
     61 CA        102.6472  260.9768  104.1040 C.3       2 GLC5        0.0000 
     62 CA        102.9520  262.7110  102.7990 C.3       6 GLL5        0.0000 
     63 CA        102.9070  259.2100  104.9790 C.3       4 GLP5        0.0000 
     64 CA        101.4745  262.3773  100.3042 C.3       2 GLC5        0.0000 
     65 CA        101.7370  263.6890   98.7950 C.3       4 GLP5        0.0000 
     66 CA        101.7822  260.3732  103.8985 C.3       2 GLC5        0.0000 
     67 CA        102.3410  262.9815  100.5100 C.3       2 GLC5        0.0000 
     68 CA        103.2545  259.7730  102.3227 C.3       2 GLC5        0.0000 
     69 CA        102.9380  261.8370  101.6510 C.3       6 GLL5        0.0000 
     70 CA        103.1990  259.8655  100.6033 C.3       2 GLC5        0.0000 
     71 CA        101.7820  261.0330  101.3800 C.3       6 GLL5        0.0000 
     72 CA        104.0380  258.2960   99.6910 C.3       4 GLP5        0.0000 
     73 CA        112.4230  267.9787   95.5468 C.3       2 GLC5        0.0000 
     74 CA        111.4830  266.3000   94.7150 C.3       6 GLL5        0.0000 
     75 CA        113.0180  269.2530   96.8570 C.3       4 GLP5        0.0000 
     76 CA        104.9320  259.9330  100.1793 C.3       2 GLC5        0.0000 
     77 CA        111.8593  263.6231   93.7171 C.3       2 GLC5        0.0000 
     78 CA        112.0260  265.0310   95.1130 C.3       6 GLL5        0.0000 
     79 CA        105.6740  263.2895   99.7399 C.3       2 GLC5        0.0000 
     80 CA        104.6490  264.6450   98.9590 C.3       4 GLP5        0.0000 
@<TRIPOS>BOND
@<TRIPOS>SUBSTRUCTURE
     1 SEC2       49 GROUP        1 X    SEC  0     ROOT SEC X 2
     2 GLC5        1 GROUP        1 X    GLC  0     **** GLC X 6
     3 SEP2       51 GROUP        1 Y    SEP  0     ROOT SEP Y 9
     4 GLP5        3 GROUP        1 Y    GLP  0     **** GLP Y 13
     5 SEL2       50 GROUP        1 Z    SEL  0     ROOT SEL Z 16
     6 GLL5        2 GROUP        1 Z    GLL  0     **** GLL Z 20
@<TRIPOS>SET

