#    Name: 4cew_7J5_1_ligand
#    Modification time : Tue Mar 25 09:19:58 2014

@<TRIPOS>MOLECULE
4cew_7J5_1_ligand
   64    66     1     0     0
SMALL
NO_CHARGES


@<TRIPOS>ATOM
      1 CAA        95.0080  261.5500  105.2600 C.3       1 7J51298     0.0000 
      2 CAB       108.3160  261.7320  101.6000 C.3       1 7J51298     0.0000 
      3 CAF        99.6120  262.0950  104.2860 C.2       1 7J51298     0.0000 
      4 CAG       113.9610  265.4190   93.5420 C.ar      1 7J51298     0.0000 
      5 CAH       113.2810  264.6120   94.4970 C.ar      1 7J51298     0.0000 
      6 CAI       101.8230  262.7760  103.6590 C.ar      1 7J51298     0.0000 
      7 CAJ       100.6420  261.0980  102.2470 C.ar      1 7J51298     0.0000 
      8 CAK       102.9520  262.7110  102.7990 C.ar      1 7J51298     0.0000 
      9 CAL       101.7820  261.0330  101.3800 C.ar      1 7J51298     0.0000 
     10 CAM       111.4830  266.3000   94.7150 C.ar      1 7J51298     0.0000 
     11 CAN        96.1480  261.3960  104.2800 C.3       1 7J51298     0.0000 
     12 CAO       105.3380  261.6670  101.2360 C.3       1 7J51298     0.0000 
     13 CAP       106.3140  261.4730  100.0990 C.3       1 7J51298     0.0000 
     14 CAQ       108.4890  262.2200   99.1760 C.3       1 7J51298     0.0000 
     15 CAR       109.2920  263.5130   99.0380 C.3       1 7J51298     0.0000 
     16 CAS       110.9970  262.3130   97.4730 C.3       1 7J51298     0.0000 
     17 CAT       111.7550  262.7870   96.2630 C.3       1 7J51298     0.0000 
     18 CAY       111.6560  268.3660   93.3610 C.2       1 7J51298     0.0000 
     19 CAZ       110.5360  264.5290   97.0800 C.2       1 7J51298     0.0000 
     20 NAC       110.4940  268.7240   93.9350 N.am      1 7J51298     0.0000 
     21 NAU        98.4000  261.7070  103.9120 N.2       1 7J51298     0.0000 
     22 NAV       113.3570  266.6710   93.2080 N.ar      1 7J51298     0.0000 
     23 OAD       112.2690  269.0990   92.5160 O.2       1 7J51298     0.0000 
     24 OAE       110.0070  265.6420   97.2610 O.2       1 7J51298     0.0000 
     25 OAW        97.3370  261.8600  104.8790 O.3       1 7J51298     0.0000 
     26 OAX       103.9790  261.7100  100.7740 O.3       1 7J51298     0.0000 
     27 CBA       100.6730  261.9750  103.3890 C.ar      1 7J51298     0.0000 
     28 CBB       102.9380  261.8370  101.6510 C.ar      1 7J51298     0.0000 
     29 CBC       112.0260  265.0310   95.1130 C.ar      1 7J51298     0.0000 
     30 CBD       112.1730  267.1090   93.7580 C.ar      1 7J51298     0.0000 
     31 CBE       107.5720  262.2980  100.3740 C.3       1 7J51298     0.0000 
     32 NBF       110.2320  263.4920   97.8910 N.am      1 7J51298     0.0000 
     33 NBG       111.4320  264.2430   96.0860 N.am      1 7J51298     0.0000 
     34 H          99.8001  262.4857  105.2243 H         1 7J51298     0.0000 
     35 H         114.8153  265.1287   93.1254 H         1 7J51298     0.0000 
     36 H         113.6734  263.7037   94.7714 H         1 7J51298     0.0000 
     37 H         101.8314  263.3926  104.4680 H         1 7J51298     0.0000 
     38 H          99.8255  260.5366  102.0617 H         1 7J51298     0.0000 
     39 H         103.7747  263.2765  102.9841 H         1 7J51298     0.0000 
     40 H         101.7709  260.4174  100.5737 H         1 7J51298     0.0000 
     41 H         110.6071  266.6212   95.1154 H         1 7J51298     0.0000 
     42 H          95.8945  261.9629  103.3752 H         1 7J51298     0.0000 
     43 H          96.2135  260.3364  104.0018 H         1 7J51298     0.0000 
     44 H         105.6078  262.6005  101.7639 H         1 7J51298     0.0000 
     45 H         105.4859  260.8435  101.9590 H         1 7J51298     0.0000 
     46 H         105.8676  261.8057   99.1700 H         1 7J51298     0.0000 
     47 H         106.5854  260.4273  100.0213 H         1 7J51298     0.0000 
     48 H         109.1776  261.3855   99.2940 H         1 7J51298     0.0000 
     49 H         107.9012  262.0692   98.2725 H         1 7J51298     0.0000 
     50 H         109.8450  263.6792   99.9780 H         1 7J51298     0.0000 
     51 H         108.5829  264.3513   98.9313 H         1 7J51298     0.0000 
     52 H         111.6891  262.0152   98.2330 H         1 7J51298     0.0000 
     53 H         110.3451  261.5116   97.1938 H         1 7J51298     0.0000 
     54 H         111.4382  262.2329   95.3939 H         1 7J51298     0.0000 
     55 H         112.8140  262.6634   96.4244 H         1 7J51298     0.0000 
     56 H         110.0987  268.0660   94.5760 H         1 7J51298     0.0000 
     57 H         110.1287  269.6163   93.6697 H         1 7J51298     0.0000 
     58 H         107.3059  263.3073  100.5622 H         1 7J51298     0.0000 
     59 H          95.1651  261.0268  106.0976 H         1 7J51298     0.0000 
     60 H          94.8770  262.5038  105.5304 H         1 7J51298     0.0000 
     61 H          94.1415  261.2329  104.8745 H         1 7J51298     0.0000 
     62 H         108.5926  260.7812  101.4603 H         1 7J51298     0.0000 
     63 H         109.1457  262.2517  101.8035 H         1 7J51298     0.0000 
     64 H         107.7473  261.7540  102.4223 H         1 7J51298     0.0000 
@<TRIPOS>BOND
     1   11    1 1    
     2   59    1 1    
     3   60    1 1    
     4   61    1 1    
     5   31    2 1    
     6   62    2 1    
     7   63    2 1    
     8   64    2 1    
     9   21    3 2    
    10   27    3 1    
    11   34    3 1    
    12    5    4 ar   
    13   22    4 ar   
    14   35    4 1    
    15   29    5 ar   
    16   36    5 1    
    17    8    6 ar   
    18   27    6 ar   
    19   37    6 1    
    20    9    7 ar   
    21   27    7 ar   
    22   38    7 1    
    23   28    8 ar   
    24   39    8 1    
    25   28    9 ar   
    26   40    9 1    
    27   29   10 ar   
    28   30   10 ar   
    29   41   10 1    
    30   25   11 1    
    31   42   11 1    
    32   43   11 1    
    33   13   12 1    
    34   26   12 1    
    35   44   12 1    
    36   45   12 1    
    37   31   13 1    
    38   46   13 1    
    39   47   13 1    
    40   15   14 1    
    41   31   14 1    
    42   48   14 1    
    43   49   14 1    
    44   32   15 1    
    45   50   15 1    
    46   51   15 1    
    47   17   16 1    
    48   32   16 1    
    49   52   16 1    
    50   53   16 1    
    51   33   17 1    
    52   54   17 1    
    53   55   17 1    
    54   20   18 am   
    55   23   18 2    
    56   30   18 1    
    57   24   19 2    
    58   32   19 am   
    59   33   19 am   
    60   56   20 1    
    61   57   20 1    
    62   25   21 1    
    63   30   22 ar   
    64   28   26 1    
    65   33   29 1    
    66   58   31 1    
@<TRIPOS>SUBSTRUCTURE
     1 7J51298     1 GROUP   
@<TRIPOS>SET

