#    Name: 2zhq_27U_1_INTS_M
#    Modification time : Tue Mar 25 10:45:05 2014

@<TRIPOS>MOLECULE
2zhq_27U_1_INTS_M
   64     0    12     0     0
SMALL
NO_CHARGES


@<TRIPOS>ATOM
      1 N          15.8145  -12.5525   24.1370 N.am      2 SEC2        0.0000 
      2 N          16.8790  -13.2430   23.0840 N.am     10 SEL2        0.0000 
      3 N          14.7500  -11.8620   25.1900 N.am      6 SEP2        0.0000 
      4 CA         17.6635  -13.8085   26.3110 C.3       4 GLC5        0.0000 
      5 CA         18.1770  -15.3070   24.8340 C.3      12 GLL5        0.0000 
      6 CA         17.1500  -12.3100   27.7880 C.3       8 GLP5        0.0000 
      7 CA         16.7160  -15.8620   26.4225 C.3       4 GLC5        0.0000 
      8 CA         15.2550  -16.4170   28.0110 C.3       8 GLP5        0.0000 
      9 CA         22.6825  -11.9445   24.0605 C.3       4 GLC5        0.0000 
     10 CA         22.1550  -13.5830   25.2510 C.3      12 GLL5        0.0000 
     11 CA         23.2100  -10.3060   22.8700 C.3       8 GLP5        0.0000 
     12 CA         20.8850  -11.4190   24.4010 C.3       4 GLC5        0.0000 
     13 CA         21.0310  -12.9140   25.7480 C.3      12 GLL5        0.0000 
     14 CA         20.7390   -9.9240   23.0540 C.3       8 GLP5        0.0000 
     15 CA         17.9420  -11.3955   23.0530 C.3       4 GLC5        0.0000 
     16 CA         18.5050  -12.1810   21.2430 C.3      12 GLL5        0.0000 
     17 CA         17.3790  -10.6100   24.8630 C.3       8 GLP5        0.0000 
     18 O          16.7395   -9.8325   21.5185 O.2       1 ALC1        0.0000 
     19 O          16.3970  -10.9920   20.6960 O.2       9 ALL1        0.0000 
     20 O          17.0820   -8.6730   22.3410 O.2       5 ALP1        0.0000 
     21 CA         10.7410   -8.4085   22.3600 C.3       4 GLC5        0.0000 
     22 CA         12.5240   -9.6460   22.5280 C.3      12 GLL5        0.0000 
     23 CA          8.9580   -7.1710   22.1920 C.3       8 GLP5        0.0000 
     24 OD1         9.1420  -10.6515   24.9965 O.co2     3 ASC3        0.0000 
     25 OD1        10.8370  -10.7980   24.0120 O.co2    11 ASL3        0.0000 
     26 OD1         7.8280  -11.5720   25.6650 O.co2     7 ASP3        0.0000 
     27 OD1         9.3185   -9.5335   25.0980 O.co2     3 ASC3        0.0000 
     28 OD1         8.0890   -9.4180   25.6380 O.co2     7 ASP3        0.0000 
     29 O           9.3185   -9.5335   25.0980 O.2       1 ALC1        0.0000 
     30 O          10.5480   -9.6490   24.5580 O.2       9 ALL1        0.0000 
     31 O           8.0890   -9.4180   25.6380 O.2       5 ALP1        0.0000 
     32 O           9.0115  -11.7285   25.0100 O.2       1 ALC1        0.0000 
     33 O          10.1950  -11.8850   24.3550 O.2       9 ALL1        0.0000 
     34 O           7.8280  -11.5720   25.6650 O.2       5 ALP1        0.0000 
     35 O           9.1420  -10.6515   24.9965 O.2       1 ALC1        0.0000 
     36 O          10.3080  -13.4000   24.3230 O.2       1 ALC1        0.0000 
     37 O          10.4210  -14.9150   24.2910 O.2       5 ALP1        0.0000 
     38 CA         10.5990  -13.0970   21.7715 C.3       4 GLC5        0.0000 
     39 CA         12.3890  -12.0470   22.4310 C.3      12 GLL5        0.0000 
     40 CA          8.8090  -14.1470   21.1120 C.3       8 GLP5        0.0000 
     41 CA         22.9840  -12.3747   26.6062 C.3       4 GLC5        0.0000 
     42 CA         24.3750  -11.5010   27.7130 C.3       8 GLP5        0.0000 
     43 CA         18.8863  -11.9038   25.2848 C.3       4 GLC5        0.0000 
     44 CA         19.0602  -10.5195   19.5748 C.3       4 GLC5        0.0000 
     45 CA         19.0460   -8.8390   18.4340 C.3       8 GLP5        0.0000 
     46 CA         22.0813  -13.8635   20.5757 C.3       4 GLC5        0.0000 
     47 CA         20.7410  -13.0170   20.9440 C.3      12 GLL5        0.0000 
     48 CA         23.8240  -14.1170   19.9120 C.3       8 GLP5        0.0000 
     49 CA         20.3234  -11.2662   21.9419 C.3       4 GLC5        0.0000 
     50 CA         19.5696  -14.4777   19.4812 C.3       4 GLC5        0.0000 
     51 CA         19.6440  -12.2190   20.1880 C.3      12 GLL5        0.0000 
     52 CA         19.0750  -15.5450   17.9120 C.3       8 GLP5        0.0000 
     53 CA         12.7888   -7.8640   21.7832 C.3       4 GLC5        0.0000 
     54 CA         13.5430   -9.6820   21.5670 C.3      12 GLL5        0.0000 
     55 CA         12.5440   -6.0640   21.5190 C.3       8 GLP5        0.0000 
     56 CA         14.1423  -10.1420   23.5598 C.3       4 GLC5        0.0000 
     57 CA         16.0530  -10.0420   24.3710 C.3       8 GLP5        0.0000 
     58 CA         10.5715  -11.1932   21.3500 C.3       4 GLC5        0.0000 
     59 CA         11.9390  -10.8380   22.9690 C.3      12 GLL5        0.0000 
     60 CA          8.9790  -10.9440   20.0000 C.3       8 GLP5        0.0000 
     61 CA         12.9770  -12.0033   24.3555 C.3       4 GLC5        0.0000 
     62 CA         13.7900  -12.5640   26.0110 C.3       8 GLP5        0.0000 
     63 CA         14.8195  -10.6114   22.8791 C.3       4 GLC5        0.0000 
     64 CA         13.4050  -12.0770   21.4740 C.3      12 GLL5        0.0000 
@<TRIPOS>BOND
@<TRIPOS>SUBSTRUCTURE
     1 ALC1       18 GROUP        1 X    ALC  0     ROOT ALC X 1
     2 SEC2        1 GROUP        1 X    SEC  0     **** SEC X 2
     3 ASC3       24 GROUP        1 X    ASC  0     **** ASC X 3
     4 GLC5        4 GROUP        1 X    GLC  0     **** GLC X 6
     5 ALP1       20 GROUP        1 Y    ALP  0     ROOT ALP Y 8
     6 SEP2        3 GROUP        1 Y    SEP  0     **** SEP Y 9
     7 ASP3       26 GROUP        1 Y    ASP  0     **** ASP Y 10
     8 GLP5        6 GROUP        1 Y    GLP  0     **** GLP Y 13
     9 ALL1       19 GROUP        1 Z    ALL  0     ROOT ALL Z 15
    10 SEL2        2 GROUP        1 Z    SEL  0     **** SEL Z 16
    11 ASL3       25 GROUP        1 Z    ASL  0     **** ASL Z 17
    12 GLL5        5 GROUP        1 Z    GLL  0     **** GLL Z 20
@<TRIPOS>SET

