#    Name: 2zhq_27U_1_ligand
#    Modification time : Tue Mar 25 10:45:05 2014

@<TRIPOS>MOLECULE
2zhq_27U_1_ligand
   55    57     1     0     0
SMALL
NO_CHARGES


@<TRIPOS>ATOM
      1 C3         17.7780  -13.9760   22.7110 C.2       1 27U501      0.0000 
      2 O1         16.8790  -13.2430   23.0840 O.2       1 27U501      0.0000 
      3 C2         17.8640  -15.3540   23.3240 C.3       1 27U501      0.0000 
      4 C1         18.1770  -15.3070   24.8340 C.3       1 27U501      0.0000 
      5 C17        19.5850  -14.7420   25.0780 C.ar      1 27U501      0.0000 
      6 C18        20.7160  -15.4040   24.5840 C.ar      1 27U501      0.0000 
      7 C19        21.9930  -14.8350   24.6660 C.ar      1 27U501      0.0000 
      8 C20        22.1550  -13.5830   25.2510 C.ar      1 27U501      0.0000 
      9 C21        21.0310  -12.9140   25.7480 C.ar      1 27U501      0.0000 
     10 C22        19.7560  -13.4810   25.6650 C.ar      1 27U501      0.0000 
     11 N1         18.6700  -13.5220   21.7990 N.am      1 27U501      0.0000 
     12 C7         18.5050  -12.1810   21.2430 C.3       1 27U501      0.0000 
     13 C8         17.1590  -12.0950   20.5470 C.2       1 27U501      0.0000 
     14 O2         16.7380  -13.1240   20.0330 O.2       1 27U501      0.0000 
     15 C6         19.6440  -12.2190   20.1880 C.3       1 27U501      0.0000 
     16 C5         20.7410  -13.0170   20.9440 C.3       1 27U501      0.0000 
     17 C4         19.9360  -14.2030   21.5350 C.3       1 27U501      0.0000 
     18 N2         16.3970  -10.9920   20.6960 N.am      1 27U501      0.0000 
     19 C9         15.1090  -10.9130   19.9790 C.3       1 27U501      0.0000 
     20 C10        13.9910  -10.8870   21.0340 C.ar      1 27U501      0.0000 
     21 C15        13.5430   -9.6820   21.5670 C.ar      1 27U501      0.0000 
     22 C14        12.5240   -9.6460   22.5280 C.ar      1 27U501      0.0000 
     23 C13        11.9390  -10.8380   22.9690 C.ar      1 27U501      0.0000 
     24 C16        10.8370  -10.7980   24.0120 C.cat     1 27U501      0.0000 
     25 N3         10.5480   -9.6490   24.5580 N.pl3     1 27U501      0.0000 
     26 N4         10.1950  -11.8850   24.3550 N.pl3     1 27U501      0.0000 
     27 C12        12.3890  -12.0470   22.4310 C.ar      1 27U501      0.0000 
     28 C11        13.4050  -12.0770   21.4740 C.ar      1 27U501      0.0000 
     29 H          18.6490  -15.9330   22.8247 H         1 27U501      0.0000 
     30 H          16.9143  -15.8820   23.1827 H         1 27U501      0.0000 
     31 H          18.1183  -16.3120   25.2396 H         1 27U501      0.0000 
     32 H          17.4461  -14.6748   25.3280 H         1 27U501      0.0000 
     33 H          20.6053  -16.3371   24.1474 H         1 27U501      0.0000 
     34 H          22.8027  -15.3422   24.2953 H         1 27U501      0.0000 
     35 H          23.0790  -13.1556   25.3184 H         1 27U501      0.0000 
     36 H          21.1462  -11.9837   26.1843 H         1 27U501      0.0000 
     37 H          18.9436  -12.9747   26.0337 H         1 27U501      0.0000 
     38 H          18.6779  -11.4483   21.9156 H         1 27U501      0.0000 
     39 H          19.9823  -11.2471   20.0005 H         1 27U501      0.0000 
     40 H          19.3295  -12.7606   19.3502 H         1 27U501      0.0000 
     41 H          21.1290  -12.4305   21.7223 H         1 27U501      0.0000 
     42 H          21.4490  -13.3770   20.2589 H         1 27U501      0.0000 
     43 H          19.8405  -14.9405   20.7945 H         1 27U501      0.0000 
     44 H          20.4076  -14.5160   22.4187 H         1 27U501      0.0000 
     45 H          16.6528  -10.2002   21.2766 H         1 27U501      0.0000 
     46 H          14.9643  -11.7774   19.3475 H         1 27U501      0.0000 
     47 H          15.0478  -10.0079   19.3924 H         1 27U501      0.0000 
     48 H          13.9682   -8.7929   21.2500 H         1 27U501      0.0000 
     49 H          12.2085   -8.7480   22.9065 H         1 27U501      0.0000 
     50 H           9.8327   -9.6614   25.2567 H         1 27U501      0.0000 
     51 H          11.0683   -8.8615   24.2276 H         1 27U501      0.0000 
     52 H          10.5124  -12.7348   23.9342 H         1 27U501      0.0000 
     53 H           9.4457  -11.7664   25.0066 H         1 27U501      0.0000 
     54 H          11.9617  -12.9338   22.7476 H         1 27U501      0.0000 
     55 H          13.7232  -12.9760   21.0918 H         1 27U501      0.0000 
@<TRIPOS>BOND
     1    2    1 2    
     2    3    1 1    
     3   11    1 am   
     4    4    3 1    
     5   29    3 1    
     6   30    3 1    
     7    5    4 1    
     8   31    4 1    
     9   32    4 1    
    10    6    5 ar   
    11   10    5 ar   
    12    7    6 ar   
    13   33    6 1    
    14    8    7 ar   
    15   34    7 1    
    16    9    8 ar   
    17   35    8 1    
    18   10    9 ar   
    19   36    9 1    
    20   37   10 1    
    21   12   11 1    
    22   17   11 1    
    23   13   12 1    
    24   15   12 1    
    25   38   12 1    
    26   14   13 2    
    27   18   13 am   
    28   16   15 1    
    29   39   15 1    
    30   40   15 1    
    31   17   16 1    
    32   41   16 1    
    33   42   16 1    
    34   43   17 1    
    35   44   17 1    
    36   19   18 1    
    37   45   18 1    
    38   20   19 1    
    39   46   19 1    
    40   47   19 1    
    41   21   20 ar   
    42   28   20 ar   
    43   22   21 ar   
    44   48   21 1    
    45   23   22 ar   
    46   49   22 1    
    47   24   23 1    
    48   27   23 ar   
    49   25   24 ar   
    50   26   24 ar   
    51   50   25 1    
    52   51   25 1    
    53   52   26 1    
    54   53   26 1    
    55   28   27 ar   
    56   54   27 1    
    57   55   28 1    
@<TRIPOS>SUBSTRUCTURE
     1 27U501      1 GROUP   
@<TRIPOS>SET

