#    Name: 2a0c_CK9_1_INTS_M
#    Modification time : Mon Mar 24 18:12:37 2014

@<TRIPOS>MOLECULE
2a0c_CK9_1_INTS_M
   67     0     9     0     0
SMALL
NO_CHARGES


@<TRIPOS>ATOM
      1 CA          2.0570    9.7475   29.3575 C.3       3 GLC5        0.0000 
      2 CA          4.1320    9.7280   29.1940 C.3       9 GLL5        0.0000 
      3 CA         -0.0180    9.7670   29.5210 C.3       6 GLP5        0.0000 
      4 CA          6.4605    6.5485   30.9505 C.3       3 GLC5        0.0000 
      5 CA          5.3710    8.2830   30.7740 C.3       9 GLL5        0.0000 
      6 CA          7.5500    4.8140   31.1270 C.3       6 GLP5        0.0000 
      7 CA          5.7585    9.8730   28.4385 C.3       3 GLC5        0.0000 
      8 CA          4.7060    8.4760   29.5380 C.3       9 GLL5        0.0000 
      9 CA          6.8110   11.2700   27.3390 C.3       6 GLP5        0.0000 
     10 CA          4.1810    6.4950   26.6375 C.3       3 GLC5        0.0000 
     11 CA          4.5230    7.3480   28.5790 C.3       9 GLL5        0.0000 
     12 CA          3.8390    5.6420   24.6960 C.3       6 GLP5        0.0000 
     13 O           4.2560    5.5665   29.4660 O.2       1 ALC1        0.0000 
     14 O           3.5280    6.4870   28.6970 O.2       7 ALL1        0.0000 
     15 O           4.9840    4.6460   30.2350 O.2       4 ALP1        0.0000 
     16 CA          1.2030    8.1160   28.8445 C.3       3 GLC5        0.0000 
     17 CA          2.4240    6.4650   28.1680 C.3       9 GLL5        0.0000 
     18 CA          0.8935    6.5820   30.0290 C.3       3 GLC5        0.0000 
     19 CA          1.5150    5.4070   28.2980 C.3       9 GLL5        0.0000 
     20 CA          0.2720    7.7570   31.7600 C.3       6 GLP5        0.0000 
     21 N           2.5470    3.2255   29.5845 N.am      2 SEC2        0.0000 
     22 N           1.4980    4.2120   28.9170 N.am      8 SEL2        0.0000 
     23 N           3.5960    2.2390   30.2520 N.am      5 SEP2        0.0000 
     24 CA         -2.6275    2.5965   27.9735 C.3       3 GLC5        0.0000 
     25 CA         -1.8090    4.0590   27.2480 C.3       9 GLL5        0.0000 
     26 CA         -3.4460    1.1340   28.6990 C.3       6 GLP5        0.0000 
     27 CA         -3.0120    2.5495   26.6775 C.3       3 GLC5        0.0000 
     28 CA         -1.6370    3.7090   25.7810 C.3       9 GLL5        0.0000 
     29 CA         -4.3870    1.3900   27.5740 C.3       6 GLP5        0.0000 
     30 CA         -0.8010    3.5070   24.2085 C.3       3 GLC5        0.0000 
     31 CA          0.0350    3.3050   22.6360 C.3       6 GLP5        0.0000 
     32 CA         -2.9945    6.5940   28.3890 C.3       3 GLC5        0.0000 
     33 CA         -2.9320    5.1140   27.3750 C.3       9 GLL5        0.0000 
     34 CA         -3.0570    8.0740   29.4030 C.3       6 GLP5        0.0000 
     35 CA         -4.1155    3.7955   27.4955 C.3       3 GLC5        0.0000 
     36 CA         -5.2990    2.4770   27.6160 C.3       6 GLP5        0.0000 
     37 CA          0.4185    8.7110   28.1155 C.3       3 GLC5        0.0000 
     38 CA          0.8550    7.6550   26.7100 C.3       9 GLL5        0.0000 
     39 CA          2.3470    6.6485   25.7030 C.3       3 GLC5        0.0000 
     40 CA         -1.4225   12.4280   27.3240 C.3       3 GLC5        0.0000 
     41 CA         -1.5940   11.1530   26.1440 C.3       9 GLL5        0.0000 
     42 CA         -1.2510   13.7030   28.5040 C.3       6 GLP5        0.0000 
     43 CA         -2.8940   12.8330   26.2050 C.3       3 GLC5        0.0000 
     44 CA         -4.1940   14.5130   26.2660 C.3       6 GLP5        0.0000 
     45 O           1.2530    7.8385   22.8130 O.2       1 ALC1        0.0000 
     46 O          -0.2060    7.0360   23.2990 O.2       7 ALL1        0.0000 
     47 O           2.7120    8.6410   22.3270 O.2       4 ALP1        0.0000 
     48 CA          2.6928    9.9555   31.2555 C.3       3 GLC5        0.0000 
     49 CA          4.2590   10.8230   30.0990 C.3       9 GLL5        0.0000 
     50 CA          0.7850    9.1770   31.7900 C.3       6 GLP5        0.0000 
     51 CA          5.6899   10.8651   28.9169 C.3       3 GLC5        0.0000 
     52 CA          4.9420   10.6450   31.3430 C.3       9 GLL5        0.0000 
     53 CA          6.6344    7.2584   28.6788 C.3       3 GLC5        0.0000 
     54 CA          8.4880    6.6530   27.9900 C.3       6 GLP5        0.0000 
     55 CA         -0.4805    4.9638   29.4975 C.3       3 GLC5        0.0000 
     56 CA         -1.8510    4.4550   31.0540 C.3       6 GLP5        0.0000 
     57 CA          1.7351    4.8065   26.7732 C.3       3 GLC5        0.0000 
     58 CA          0.2650    5.5380   27.5840 C.3       9 GLL5        0.0000 
     59 CA          2.3530    3.8760   25.6380 C.3       6 GLP5        0.0000 
     60 CA         -2.1107    4.5207   29.1827 C.3       3 GLC5        0.0000 
     61 CA         -1.0210    1.9160   26.3972 C.3       3 GLC5        0.0000 
     62 CA         -0.3190   -0.0520   26.2800 C.3       6 GLP5        0.0000 
     63 CA          0.3150    3.8800   26.0763 C.3       3 GLC5        0.0000 
     64 CA         -0.8243   10.0783   27.7650 C.3       3 GLC5        0.0000 
     65 CA         -1.6670    9.6260   25.8740 C.3       9 GLL5        0.0000 
     66 CA         -2.9577    9.8262   26.7915 C.3       3 GLC5        0.0000 
     67 CA         -4.2850    9.2630   27.5740 C.3       6 GLP5        0.0000 
@<TRIPOS>BOND
@<TRIPOS>SUBSTRUCTURE
     1 ALC1       13 GROUP        1 X    ALC  0     ROOT ALC X 1
     2 SEC2       21 GROUP        1 X    SEC  0     **** SEC X 2
     3 GLC5        1 GROUP        1 X    GLC  0     **** GLC X 6
     4 ALP1       15 GROUP        1 Y    ALP  0     ROOT ALP Y 8
     5 SEP2       23 GROUP        1 Y    SEP  0     **** SEP Y 9
     6 GLP5        3 GROUP        1 Y    GLP  0     **** GLP Y 13
     7 ALL1       14 GROUP        1 Z    ALL  0     ROOT ALL Z 15
     8 SEL2       22 GROUP        1 Z    SEL  0     **** SEL Z 16
     9 GLL5        2 GROUP        1 Z    GLL  0     **** GLL Z 20
@<TRIPOS>SET

