#    Name: 2a0c_CK9_1_ligand
#    Modification time : Mon Mar 24 18:12:37 2014

@<TRIPOS>MOLECULE
2a0c_CK9_1_ligand
   53    55     1     0     0
SMALL
NO_CHARGES


@<TRIPOS>ATOM
      1 O27         3.4740    9.8470   27.9890 O.3       1 CK9500      0.0000 
      2 C24         4.1320    9.7280   29.1940 C.ar      1 CK9500      0.0000 
      3 C23         4.2590   10.8230   30.0990 C.ar      1 CK9500      0.0000 
      4 C22         4.9420   10.6450   31.3430 C.ar      1 CK9500      0.0000 
      5 C21         5.4970    9.3750   31.6790 C.ar      1 CK9500      0.0000 
      6 C20         5.3710    8.2830   30.7740 C.ar      1 CK9500      0.0000 
      7 C19         4.7060    8.4760   29.5380 C.ar      1 CK9500      0.0000 
      8 C18         4.5230    7.3480   28.5790 C.3       1 CK9500      0.0000 
      9 N17         3.5280    6.4870   28.6970 N.pl3     1 CK9500      0.0000 
     10 C4          2.4240    6.4650   28.1680 C.ar      1 CK9500      0.0000 
     11 C5          1.5150    5.4070   28.2980 C.ar      1 CK9500      0.0000 
     12 N9          1.4980    4.2120   28.9170 N.2       1 CK9500      0.0000 
     13 C8          0.3690    3.6070   28.6340 C.2       1 CK9500      0.0000 
     14 C6          0.2650    5.5380   27.5840 C.ar      1 CK9500      0.0000 
     15 N7         -0.4450    4.3860   27.8110 N.pl3     1 CK9500      0.0000 
     16 C10        -1.8090    4.0590   27.2480 C.3       1 CK9500      0.0000 
     17 C12        -1.6370    3.7090   25.7810 C.3       1 CK9500      0.0000 
     18 C11        -2.9320    5.1140   27.3750 C.3       1 CK9500      0.0000 
     19 N3         -0.0340    6.6310   26.8070 N.ar      1 CK9500      0.0000 
     20 C2          0.8550    7.6550   26.7100 C.ar      1 CK9500      0.0000 
     21 N1          2.0320    7.5560   27.3930 N.ar      1 CK9500      0.0000 
     22 N13         0.6230    8.6970   25.9820 N.pl3     1 CK9500      0.0000 
     23 C14        -0.5390    8.8980   25.0470 C.3       1 CK9500      0.0000 
     24 C25        -1.6670    9.6260   25.8740 C.3       1 CK9500      0.0000 
     25 C26        -1.5940   11.1530   26.1440 C.3       1 CK9500      0.0000 
     26 C15        -1.0700    7.6310   24.2720 C.3       1 CK9500      0.0000 
     27 O16        -0.2060    7.0360   23.2990 O.3       1 CK9500      0.0000 
     28 H           3.8657   11.7284   29.8621 H         1 CK9500      0.0000 
     29 H           5.0310   11.4261   31.9874 H         1 CK9500      0.0000 
     30 H           5.9816    9.2505   32.5635 H         1 CK9500      0.0000 
     31 H           5.7552    7.3757   31.0151 H         1 CK9500      0.0000 
     32 H           5.5562    6.8081   28.5435 H         1 CK9500      0.0000 
     33 H           4.5413    7.8411   27.5222 H         1 CK9500      0.0000 
     34 H           3.7699    5.6382   29.4165 H         1 CK9500      0.0000 
     35 H           0.0878    2.7126   28.9423 H         1 CK9500      0.0000 
     36 H          -2.1716    3.1284   27.7336 H         1 CK9500      0.0000 
     37 H           1.2796    9.5505   25.9878 H         1 CK9500      0.0000 
     38 H          -0.2285    9.6479   24.2793 H         1 CK9500      0.0000 
     39 H          -1.7506    9.0966   26.8648 H         1 CK9500      0.0000 
     40 H          -2.6490    9.4041   25.3687 H         1 CK9500      0.0000 
     41 H          -2.0510    7.9418   23.8150 H         1 CK9500      0.0000 
     42 H          -1.3667    6.8898   25.0659 H         1 CK9500      0.0000 
     43 H          -1.2442    4.4680   25.2617 H         1 CK9500      0.0000 
     44 H          -1.0314    2.9233   25.6552 H         1 CK9500      0.0000 
     45 H          -2.5092    3.4789   25.3494 H         1 CK9500      0.0000 
     46 H          -3.1254    5.3374   28.3303 H         1 CK9500      0.0000 
     47 H          -2.6913    5.9696   26.9168 H         1 CK9500      0.0000 
     48 H          -3.7886    4.7952   26.9694 H         1 CK9500      0.0000 
     49 H          -0.7675   11.4018   26.6489 H         1 CK9500      0.0000 
     50 H          -1.5884   11.6805   25.2945 H         1 CK9500      0.0000 
     51 H          -2.3737   11.4727   26.6824 H         1 CK9500      0.0000 
     52 H           2.9749    8.9872   27.8808 H         1 CK9500      0.0000 
     53 H           0.5533    7.6791   23.1996 H         1 CK9500      0.0000 
@<TRIPOS>BOND
     1    2    1 1    
     2   52    1 1    
     3    3    2 ar   
     4    7    2 ar   
     5    4    3 ar   
     6   28    3 1    
     7    5    4 ar   
     8   29    4 1    
     9    6    5 ar   
    10   30    5 1    
    11    7    6 ar   
    12   31    6 1    
    13    8    7 1    
    14    9    8 1    
    15   32    8 1    
    16   33    8 1    
    17   10    9 1    
    18   34    9 1    
    19   11   10 ar   
    20   21   10 ar   
    21   12   11 1    
    22   14   11 ar   
    23   13   12 2    
    24   15   13 1    
    25   35   13 1    
    26   15   14 1    
    27   19   14 ar   
    28   16   15 1    
    29   17   16 1    
    30   18   16 1    
    31   36   16 1    
    32   43   17 1    
    33   44   17 1    
    34   45   17 1    
    35   46   18 1    
    36   47   18 1    
    37   48   18 1    
    38   20   19 ar   
    39   21   20 ar   
    40   22   20 1    
    41   23   22 1    
    42   37   22 1    
    43   24   23 1    
    44   26   23 1    
    45   38   23 1    
    46   25   24 1    
    47   39   24 1    
    48   40   24 1    
    49   49   25 1    
    50   50   25 1    
    51   51   25 1    
    52   27   26 1    
    53   41   26 1    
    54   42   26 1    
    55   53   27 1    
@<TRIPOS>SUBSTRUCTURE
     1 CK9500      1 GROUP   
@<TRIPOS>SET

