#    Name: 3zyv_MTE_4_INTS_M
#    Modification time : Tue Mar 25 04:44:02 2014

@<TRIPOS>MOLECULE
3zyv_MTE_4_INTS_M
   49     0     9     0     0
SMALL
NO_CHARGES


@<TRIPOS>ATOM
      1 N         -36.4275   57.0750  -16.1445 N.am      2 SEC2        0.0000 
      2 N         -35.1400   58.1770  -16.2190 N.am      8 SEL2        0.0000 
      3 N         -37.7150   55.9730  -16.0700 N.am      5 SEP2        0.0000 
      4 O         -33.7655   55.6475  -16.1295 O.2       1 ALC1        0.0000 
      5 O         -33.1800   57.0560  -16.8560 O.2       7 ALL1        0.0000 
      6 O         -34.3510   54.2390  -15.4030 O.2       4 ALP1        0.0000 
      7 O         -32.4845   57.7805  -18.0700 O.2       1 ALC1        0.0000 
      8 O         -31.7890   58.5050  -19.2840 O.2       4 ALP1        0.0000 
      9 O         -32.5195   58.9330  -18.1545 O.2       1 ALC1        0.0000 
     10 O         -33.2500   59.3610  -17.0250 O.2       7 ALL1        0.0000 
     11 N         -33.2655   62.7240  -16.5170 N.am      2 SEC2        0.0000 
     12 N         -33.2630   61.5990  -17.1970 N.am      8 SEL2        0.0000 
     13 N         -33.2680   63.8490  -15.8370 N.am      5 SEP2        0.0000 
     14 CA        -37.6310   60.7805  -13.8155 C.3       3 GLC5        0.0000 
     15 CA        -37.9050   60.4750  -15.9600 C.3       9 GLL5        0.0000 
     16 CA        -37.3570   61.0860  -11.6710 C.3       6 GLP5        0.0000 
     17 CA        -39.8090   59.6910  -15.6545 C.3       3 GLC5        0.0000 
     18 CA        -41.7130   58.9070  -15.3490 C.3       6 GLP5        0.0000 
     19 CA        -34.6910   62.3550  -15.5485 C.3       3 GLC5        0.0000 
     20 CA        -35.2310   60.5930  -16.3830 C.3       9 GLL5        0.0000 
     21 CA        -34.1510   64.1170  -14.7140 C.3       6 GLP5        0.0000 
     22 CA        -35.0600   61.5075  -18.3195 C.3       3 GLC5        0.0000 
     23 CA        -34.8890   62.4220  -20.2560 C.3       6 GLP5        0.0000 
     24 CA        -36.4905   58.1885  -17.6170 C.3       3 GLC5        0.0000 
     25 CA        -35.8550   59.3050  -16.0460 C.3       9 GLL5        0.0000 
     26 CA        -37.1260   57.0720  -19.1880 C.3       6 GLP5        0.0000 
     27 CA        -36.1085   64.2365  -14.8735 C.3       3 GLC5        0.0000 
     28 CA        -38.0660   64.3560  -15.0330 C.3       9 GLL5        0.0000 
     29 CA        -38.1955   64.5930  -13.2615 C.3       3 GLC5        0.0000 
     30 CA        -38.3250   64.8300  -11.4900 C.3       6 GLP5        0.0000 
     31 CA        -40.0470   65.2065  -18.9030 C.3       3 GLC5        0.0000 
     32 CA        -39.5180   64.1800  -17.6110 C.3       9 GLL5        0.0000 
     33 CA        -40.5760   66.2330  -20.1950 C.3       6 GLP5        0.0000 
     34 CA        -36.7420   62.1565  -19.7665 C.3       3 GLC5        0.0000 
     35 CA        -38.5950   61.8910  -19.2770 C.3       9 GLL5        0.0000 
     36 CA        -38.1390   59.8695  -19.8040 C.3       3 GLC5        0.0000 
     37 CA        -37.6830   57.8480  -20.3310 C.3       6 GLP5        0.0000 
     38 CA        -38.4510   62.4920  -21.3695 C.3       3 GLC5        0.0000 
     39 CA        -38.3070   63.0930  -23.4620 C.3       6 GLP5        0.0000 
     40 N         -38.0135   60.3000  -20.8375 N.am      2 SEC2        0.0000 
     41 N         -39.0430   60.8110  -20.0700 N.am      8 SEL2        0.0000 
     42 N         -36.9840   59.7890  -21.6050 N.am      5 SEP2        0.0000 
     43 CA        -35.8713   63.2200  -15.2237 C.3       3 GLC5        0.0000 
     44 CA        -38.0090   62.9070  -15.9330 C.3       9 GLL5        0.0000 
     45 CA        -37.8563   62.3355  -13.8708 C.3       3 GLC5        0.0000 
     46 CA        -37.1740   61.7390  -15.5340 C.3       9 GLL5        0.0000 
     47 CA        -38.1210   62.3480  -12.0080 C.3       6 GLP5        0.0000 
     48 CA        -39.9368   63.5072  -14.5905 C.3       3 GLC5        0.0000 
     49 CA        -41.8360   63.3830  -13.6980 C.3       6 GLP5        0.0000 
@<TRIPOS>BOND
@<TRIPOS>SUBSTRUCTURE
     1 ALC1        4 GROUP        1 X    ALC  0     ROOT ALC X 1
     2 SEC2        1 GROUP        1 X    SEC  0     **** SEC X 2
     3 GLC5       14 GROUP        1 X    GLC  0     **** GLC X 6
     4 ALP1        6 GROUP        1 Y    ALP  0     ROOT ALP Y 8
     5 SEP2        3 GROUP        1 Y    SEP  0     **** SEP Y 9
     6 GLP5       16 GROUP        1 Y    GLP  0     **** GLP Y 13
     7 ALL1        5 GROUP        1 Z    ALL  0     ROOT ALL Z 15
     8 SEL2        2 GROUP        1 Z    SEL  0     **** SEL Z 16
     9 GLL5       15 GROUP        1 Z    GLL  0     **** GLL Z 20
@<TRIPOS>SET

