#    Name: 3zyv_MTE_4_ligand
#    Modification time : Tue Mar 25 04:44:02 2014

@<TRIPOS>MOLECULE
3zyv_MTE_4_ligand
   34    36     1     0     0
SMALL
NO_CHARGES


@<TRIPOS>ATOM
      1 N1        -35.1400   58.1770  -16.2190 N.2       1 MTE3003     0.0000 
      2 C2        -33.8660   58.2150  -16.6970 C.2       1 MTE3003     0.0000 
      3 N2        -33.1800   57.0560  -16.8560 N.pl3     1 MTE3003     0.0000 
      4 N3        -33.2500   59.3610  -17.0250 N.am      1 MTE3003     0.0000 
      5 C4        -33.8520   60.5450  -16.8940 C.2       1 MTE3003     0.0000 
      6 O4        -33.2630   61.5990  -17.1970 O.2       1 MTE3003     0.0000 
      7 N5        -35.9070   61.7500  -16.2340 N.pl3     1 MTE3003     0.0000 
      8 C6        -37.1740   61.7390  -15.5340 C.3       1 MTE3003     0.0000 
      9 C7        -37.9050   60.4750  -15.9600 C.3       1 MTE3003     0.0000 
     10 N8        -37.1190   59.3120  -15.5890 N.pl3     1 MTE3003     0.0000 
     11 C9        -35.2310   60.5930  -16.3830 C.2       1 MTE3003     0.0000 
     12 C10       -35.8550   59.3050  -16.0460 C.2       1 MTE3003     0.0000 
     13 C1'       -38.0090   62.9070  -15.9330 C.2       1 MTE3003     0.0000 
     14 S1'       -38.0660   64.3560  -15.0330 S.3       1 MTE3003     0.0000 
     15 C2'       -38.7320   62.8120  -17.0400 C.2       1 MTE3003     0.0000 
     16 S2'       -39.5180   64.1800  -17.6110 S.3       1 MTE3003     0.0000 
     17 C3'       -38.8840   61.5470  -17.8240 C.3       1 MTE3003     0.0000 
     18 O3'       -37.9960   60.5190  -17.3820 O.3       1 MTE3003     0.0000 
     19 C4'       -38.5950   61.8910  -19.2770 C.3       1 MTE3003     0.0000 
     20 O4'       -39.0430   60.8110  -20.0700 O.3       1 MTE3003     0.0000 
     21 P         -40.6260   60.7680  -20.3190 P.3       1 MTE3003     0.0000 
     22 O1P       -40.7760   60.6130  -21.8140 O.co2     1 MTE3003     0.0000 
     23 O2P       -41.0490   59.5510  -19.5280 O.co2     1 MTE3003     0.0000 
     24 O3P       -41.0750   62.0810  -19.7240 O.co2     1 MTE3003     0.0000 
     25 H         -33.3850   56.3297  -16.1999 H         1 MTE3003     0.0000 
     26 H         -32.5298   57.0302  -17.6153 H         1 MTE3003     0.0000 
     27 H         -32.2607   59.3218  -17.3971 H         1 MTE3003     0.0000 
     28 H         -35.5691   62.6434  -16.5926 H         1 MTE3003     0.0000 
     29 H         -37.0433   61.7152  -14.4835 H         1 MTE3003     0.0000 
     30 H         -38.8592   60.4627  -15.5066 H         1 MTE3003     0.0000 
     31 H         -37.5352   58.5999  -15.0345 H         1 MTE3003     0.0000 
     32 H         -39.9182   61.2310  -17.7709 H         1 MTE3003     0.0000 
     33 H         -37.5220   62.0580  -19.3744 H         1 MTE3003     0.0000 
     34 H         -39.1161   62.8196  -19.5111 H         1 MTE3003     0.0000 
@<TRIPOS>BOND
     1    2    1 2    
     2   12    1 1    
     3    3    2 1    
     4    4    2 1    
     5   25    3 1    
     6   26    3 1    
     7    5    4 am   
     8   27    4 1    
     9    6    5 2    
    10   11    5 1    
    11    8    7 1    
    12   11    7 1    
    13   28    7 1    
    14    9    8 1    
    15   13    8 1    
    16   29    8 1    
    17   10    9 1    
    18   18    9 1    
    19   30    9 1    
    20   12   10 1    
    21   31   10 1    
    22   12   11 2    
    23   14   13 1    
    24   15   13 2    
    25   16   15 1    
    26   17   15 1    
    27   18   17 1    
    28   19   17 1    
    29   32   17 1    
    30   20   19 1    
    31   33   19 1    
    32   34   19 1    
    33   21   20 1    
    34   22   21 ar   
    35   23   21 ar   
    36   24   21 ar   
@<TRIPOS>SUBSTRUCTURE
     1 MTE3003     1 GROUP   
@<TRIPOS>SET

