#    Name: 3znq_SS8_1_INTS_M
#    Modification time : Tue Mar 25 03:43:15 2014

@<TRIPOS>MOLECULE
3znq_SS8_1_INTS_M
   43     0     9     0     0
SMALL
NO_CHARGES


@<TRIPOS>ATOM
      1 NZ         -9.0795    2.6965   19.9875 N.4       2 LYC4        0.0000 
      2 NZ         -9.2560    2.4270   18.9680 N.4       8 LYL4        0.0000 
      3 NZ         -7.7550    2.9890   21.6800 N.4       5 LYP4        0.0000 
      4 N          -9.0795    2.6965   19.9875 N.am      1 SEC2        0.0000 
      5 N          -9.2560    2.4270   18.9680 N.am      7 SEL2        0.0000 
      6 N          -8.9030    2.9660   21.0070 N.am      4 SEP2        0.0000 
      7 NZ         -6.9585    2.0260   20.0685 N.4       2 LYC4        0.0000 
      8 NZ         -7.2850    1.4660   19.0340 N.4       8 LYL4        0.0000 
      9 N          -8.0940    2.2160   20.0205 N.am      1 SEC2        0.0000 
     10 N          -7.2850    1.4660   19.0340 N.am      7 SEL2        0.0000 
     11 N          -6.9585    2.0260   20.0685 N.am      1 SEC2        0.0000 
     12 N          -6.6320    2.5860   21.1030 N.am      4 SEP2        0.0000 
     13 CA        -10.4295    2.3415   15.4610 C.3       3 GLC5        0.0000 
     14 CA         -9.7220    0.2160   15.5740 C.3       9 GLL5        0.0000 
     15 CA        -11.1370    4.4670   15.3480 C.3       6 GLP5        0.0000 
     16 CA         -9.2715   -0.2270   11.6535 C.3       3 GLC5        0.0000 
     17 CA         -9.6660   -0.5910   13.4420 C.3       9 GLL5        0.0000 
     18 CA         -8.8770    0.1370    9.8650 C.3       6 GLP5        0.0000 
     19 CA        -11.0110   -2.0950   12.5960 C.3       3 GLC5        0.0000 
     20 CA        -12.3560   -3.5990   11.7500 C.3       6 GLP5        0.0000 
     21 CA        -13.9150    0.0720   15.4700 C.3       3 GLC5        0.0000 
     22 CA        -11.9720   -0.7270   14.8730 C.3       9 GLL5        0.0000 
     23 CA        -15.8580    0.8710   16.0670 C.3       6 GLP5        0.0000 
     24 CA        -11.7220   -1.3455   17.8570 C.3       3 GLC5        0.0000 
     25 CA        -12.2740   -1.9380   15.7960 C.3       9 GLL5        0.0000 
     26 CA        -11.1700   -0.7530   19.9180 C.3       6 GLP5        0.0000 
     27 CA        -11.9280   -4.7650   14.0600 C.3       3 GLC5        0.0000 
     28 CA        -11.4490   -4.4260   16.2230 C.3       9 GLL5        0.0000 
     29 CA        -12.4070   -5.1040   11.8970 C.3       6 GLP5        0.0000 
     30 CA        -13.4660   -4.6195   17.0085 C.3       3 GLC5        0.0000 
     31 CA        -15.4830   -4.8130   17.7940 C.3       6 GLP5        0.0000 
     32 CA         -6.7185    0.5353   14.0038 C.3       3 GLC5        0.0000 
     33 CA         -8.4940    0.4020   15.1500 C.3       9 GLL5        0.0000 
     34 CA         -5.3270    0.3720   12.3770 C.3       6 GLP5        0.0000 
     35 CA        -12.2395   -2.4657   13.5422 C.3       3 GLC5        0.0000 
     36 CA        -11.6975   -6.5072   15.9232 C.3       3 GLC5        0.0000 
     37 CA        -10.4610   -5.3530   16.6220 C.3       9 GLL5        0.0000 
     38 CA        -12.4400   -8.1250   15.4240 C.3       6 GLP5        0.0000 
     39 CA         -8.7115   -4.7371   15.0410 C.3       3 GLC5        0.0000 
     40 CA         -7.6980   -4.7090   13.2340 C.3       6 GLP5        0.0000 
     41 CA        -10.9855   -5.0256   18.5779 C.3       3 GLC5        0.0000 
     42 CA         -9.1570   -4.8720   17.0510 C.3       9 GLL5        0.0000 
     43 CA        -11.3420   -5.2820   20.6260 C.3       6 GLP5        0.0000 
@<TRIPOS>BOND
@<TRIPOS>SUBSTRUCTURE
     1 SEC2        4 GROUP        1 X    SEC  0     ROOT SEC X 2
     2 LYC4        1 GROUP        1 X    LYC  0     **** LYC X 4
     3 GLC5       13 GROUP        1 X    GLC  0     **** GLC X 6
     4 SEP2        6 GROUP        1 Y    SEP  0     ROOT SEP Y 9
     5 LYP4        3 GROUP        1 Y    LYP  0     **** LYP Y 11
     6 GLP5       15 GROUP        1 Y    GLP  0     **** GLP Y 13
     7 SEL2        5 GROUP        1 Z    SEL  0     ROOT SEL Z 16
     8 LYL4        2 GROUP        1 Z    LYL  0     **** LYL Z 18
     9 GLL5       14 GROUP        1 Z    GLL  0     **** GLL Z 20
@<TRIPOS>SET

