#    Name: 3znq_SS8_1_ligand
#    Modification time : Tue Mar 25 03:43:15 2014

@<TRIPOS>MOLECULE
3znq_SS8_1_ligand
   29    31     1     0     0
SMALL
NO_CHARGES


@<TRIPOS>ATOM
      1 C1         -8.3750    1.7020   18.4800 C.2       1 SS8357      0.0000 
      2 O2         -9.2560    2.4270   18.9680 O.co2     1 SS8357      0.0000 
      3 O3         -7.2850    1.4660   19.0340 O.co2     1 SS8357      0.0000 
      4 C4         -8.6660    1.1120   17.1680 C.2       1 SS8357      0.0000 
      5 N5         -9.9090    0.6340   16.8650 N.pl3     1 SS8357      0.0000 
      6 C6         -9.7220    0.2160   15.5740 C.2       1 SS8357      0.0000 
      7 C7         -8.4940    0.4020   15.1500 C.2       1 SS8357      0.0000 
      8 C8         -7.7260    0.9950   16.1110 C.2       1 SS8357      0.0000 
      9 O9         -8.3070   -0.0470   13.8180 O.3       1 SS8357      0.0000 
     10 C10        -9.6660   -0.5910   13.4420 C.2       1 SS8357      0.0000 
     11 C11       -10.5270   -0.4360   14.5410 C.2       1 SS8357      0.0000 
     12 C12       -11.9720   -0.7270   14.8730 C.2       1 SS8357      0.0000 
     13 C13       -12.2740   -1.9380   15.7960 C.2       1 SS8357      0.0000 
     14 C14       -11.1720   -2.9890   16.2490 C.ar      1 SS8357      0.0000 
     15 C15        -9.8400   -2.5840   16.7090 C.ar      1 SS8357      0.0000 
     16 C16        -8.8210   -3.4830   17.0970 C.ar      1 SS8357      0.0000 
     17 C17        -9.1570   -4.8720   17.0510 C.ar      1 SS8357      0.0000 
     18 C18       -10.4610   -5.3530   16.6220 C.ar      1 SS8357      0.0000 
     19 C19       -11.4490   -4.4260   16.2230 C.ar      1 SS8357      0.0000 
     20 H         -10.6609    0.6009   17.3802 H         1 SS8357      0.0000 
     21 H          -6.8634    1.2533   16.1098 H         1 SS8357      0.0000 
     22 H          -9.8417   -0.9542   12.6096 H         1 SS8357      0.0000 
     23 H         -12.6967   -0.1890   14.5319 H         1 SS8357      0.0000 
     24 H         -13.2021   -2.0758   16.1291 H         1 SS8357      0.0000 
     25 H          -9.6521   -1.5570   16.7449 H         1 SS8357      0.0000 
     26 H          -7.9244   -3.1770   17.3851 H         1 SS8357      0.0000 
     27 H          -8.4520   -5.5705   17.3319 H         1 SS8357      0.0000 
     28 H         -10.6404   -6.3480   16.6162 H         1 SS8357      0.0000 
     29 H         -12.3653   -4.7363   15.9122 H         1 SS8357      0.0000 
@<TRIPOS>BOND
     1    2    1 ar   
     2    3    1 ar   
     3    4    1 1    
     4    5    4 1    
     5    8    4 2    
     6    6    5 1    
     7   20    5 1    
     8    7    6 2    
     9   11    6 1    
    10    8    7 1    
    11    9    7 1    
    12   21    8 1    
    13   10    9 1    
    14   11   10 2    
    15   22   10 1    
    16   12   11 1    
    17   13   12 2    
    18   23   12 1    
    19   14   13 1    
    20   24   13 1    
    21   15   14 ar   
    22   19   14 ar   
    23   16   15 ar   
    24   25   15 1    
    25   17   16 ar   
    26   26   16 1    
    27   18   17 ar   
    28   27   17 1    
    29   19   18 ar   
    30   28   18 1    
    31   29   19 1    
@<TRIPOS>SUBSTRUCTURE
     1 SS8357      1 GROUP   
@<TRIPOS>SET

