#    Name: 1o6y_ACP_1_INTS_M
#    Modification time : Mon Mar 24 19:43:25 2014

@<TRIPOS>MOLECULE
1o6y_ACP_1_INTS_M
   81     0    15     0     0
SMALL
NO_CHARGES


@<TRIPOS>ATOM
      1 Zn         79.9520   81.4135   20.1400 Zn        4 ZIC7        0.0000 
      2 Zn         79.6010   82.2810   20.5950 Zn       14 ZIL7        0.0000 
      3 Zn         80.3030   80.5460   19.6850 Zn        9 ZIP7        0.0000 
      4 N          78.9265   85.0655   22.6195 N.am      2 SEC2        0.0000 
      5 N          80.0950   84.1690   22.1250 N.am     12 SEL2        0.0000 
      6 N          77.7580   85.9620   23.1140 N.am      7 SEP2        0.0000 
      7 N          76.9815   83.6585   21.9610 N.am      2 SEC2        0.0000 
      8 N          78.0600   82.8720   22.3110 N.am     12 SEL2        0.0000 
      9 N          75.9030   84.4450   21.6110 N.am      7 SEP2        0.0000 
     10 N          77.6600   81.4420   22.5255 N.am      2 SEC2        0.0000 
     11 N          77.2600   80.0120   22.7400 N.am      7 SEP2        0.0000 
     12 Zn         83.7435   80.9770   22.1555 Zn        4 ZIC7        0.0000 
     13 Zn         82.7570   81.3250   22.1900 Zn       14 ZIL7        0.0000 
     14 Zn         84.7300   80.6290   22.1210 Zn        9 ZIP7        0.0000 
     15 NZ         80.6160   78.5705   21.4185 N.4       3 LYC4        0.0000 
     16 NZ         80.9520   79.8240   21.3620 N.4      13 LYL4        0.0000 
     17 NZ         80.2800   77.3170   21.4750 N.4       8 LYP4        0.0000 
     18 Zn         80.6275   80.1850   20.5235 Zn        4 ZIC7        0.0000 
     19 Zn         80.9520   79.8240   21.3620 Zn       14 ZIL7        0.0000 
     20 N          80.6160   78.5705   21.4185 N.am      2 SEC2        0.0000 
     21 N          80.9520   79.8240   21.3620 N.am     12 SEL2        0.0000 
     22 N          80.2800   77.3170   21.4750 N.am      7 SEP2        0.0000 
     23 CA         79.6175   83.2270   23.9885 C.3       5 GLC5        0.0000 
     24 CA         80.2730   81.6590   23.1340 C.3      15 GLL5        0.0000 
     25 CA         78.9620   84.7950   24.8430 C.3      10 GLP5        0.0000 
     26 Zn         84.5275   79.8400   22.7160 Zn        4 ZIC7        0.0000 
     27 Zn         84.3250   79.0510   23.3110 Zn       14 ZIL7        0.0000 
     28 NZ         81.4895   77.2645   22.4165 N.4       3 LYC4        0.0000 
     29 NZ         82.6990   77.2120   23.3580 N.4      13 LYL4        0.0000 
     30 N          81.4895   77.2645   22.4165 N.am      2 SEC2        0.0000 
     31 N          82.6990   77.2120   23.3580 N.am     12 SEL2        0.0000 
     32 CA         81.4100   78.1900   26.4730 C.3       5 GLC5        0.0000 
     33 CA         83.0150   79.5440   26.1360 C.3      15 GLL5        0.0000 
     34 CA         79.8050   76.8360   26.8100 C.3      10 GLP5        0.0000 
     35 O          87.2150   79.9525   26.0960 O.2       1 ALC1        0.0000 
     36 O          86.1280   79.7080   27.1760 O.2      11 ALL1        0.0000 
     37 O          88.3020   80.1970   25.0160 O.2       6 ALP1        0.0000 
     38 CA         86.6820   76.4395   28.6590 C.3       5 GLC5        0.0000 
     39 CA         85.2960   77.8810   28.4850 C.3      15 GLL5        0.0000 
     40 CA         88.0680   74.9980   28.8330 C.3      10 GLP5        0.0000 
     41 CA         82.7450   76.9295   30.5500 C.3       5 GLC5        0.0000 
     42 CA         83.8900   77.3430   28.7510 C.3      15 GLL5        0.0000 
     43 CA         81.6000   76.5160   32.3490 C.3      10 GLP5        0.0000 
     44 CA         82.5455   78.8730   29.3730 C.3       5 GLC5        0.0000 
     45 CA         81.2010   80.4030   29.9950 C.3      10 GLP5        0.0000 
     46 CA         81.7085   76.8955   28.5010 C.3       5 GLC5        0.0000 
     47 CA         79.5270   76.4480   28.2510 C.3      10 GLP5        0.0000 
     48 CA         82.2215   73.1245   26.4105 C.3       5 GLC5        0.0000 
     49 CA         83.8290   73.8450   27.7510 C.3      15 GLL5        0.0000 
     50 CA         80.6140   72.4040   25.0700 C.3      10 GLP5        0.0000 
     51 CA         85.3565   74.6395   26.5095 C.3       5 GLC5        0.0000 
     52 CA         86.8840   75.4340   25.2680 C.3      10 GLP5        0.0000 
     53 CA         85.9470   71.3160   28.2545 C.3       5 GLC5        0.0000 
     54 CA         84.0900   72.4580   28.1580 C.3      15 GLL5        0.0000 
     55 CA         87.8040   70.1740   28.3510 C.3      10 GLP5        0.0000 
     56 O          83.9460   70.0880   27.5635 O.2       1 ALC1        0.0000 
     57 O          83.8200   71.4440   27.2400 O.2      11 ALL1        0.0000 
     58 O          84.0720   68.7320   27.8870 O.2       6 ALP1        0.0000 
     59 N          85.2335   71.0345   30.0320 N.am      2 SEC2        0.0000 
     60 N          84.5060   72.2260   29.3970 N.am     12 SEL2        0.0000 
     61 N          85.9610   69.8430   30.6670 N.am      7 SEP2        0.0000 
     62 CA         83.1670   73.6055   31.4275 C.3       5 GLC5        0.0000 
     63 CA         84.7460   73.2420   30.2870 C.3      15 GLL5        0.0000 
     64 CA         81.5880   73.9690   32.5680 C.3      10 GLP5        0.0000 
     65 CA         82.9405   72.1645   29.6625 C.3       5 GLC5        0.0000 
     66 CA         81.1350   71.0870   29.0380 C.3      10 GLP5        0.0000 
     67 CA         86.3515   72.0885   29.9695 C.3       5 GLC5        0.0000 
     68 CA         87.9570   70.9350   29.6520 C.3      10 GLP5        0.0000 
     69 CA         86.4720   74.1140   30.4875 C.3       5 GLC5        0.0000 
     70 CA         88.1980   74.9860   30.6880 C.3      10 GLP5        0.0000 
     71 CA         86.0655   74.9315   28.7820 C.3       5 GLC5        0.0000 
     72 CA         84.0630   74.8650   28.7310 C.3      15 GLL5        0.0000 
     73 CA         82.2892   79.9130   28.3878 C.3       5 GLC5        0.0000 
     74 CA         83.7400   79.3020   27.4250 C.3      15 GLL5        0.0000 
     75 CA         87.2227   78.9030   28.1325 C.3       5 GLC5        0.0000 
     76 CA         85.1370   78.7030   27.2390 C.3      15 GLL5        0.0000 
     77 CA         89.2290   79.5140   28.4030 C.3      10 GLP5        0.0000 
     78 CA         86.0503   76.8630   26.5650 C.3       5 GLC5        0.0000 
     79 CA         81.9795   74.6845   28.3840 C.3       5 GLC5        0.0000 
     80 CA         80.0130   75.0140   28.5270 C.3      10 GLP5        0.0000 
     81 CA         82.5473   72.1193   28.4962 C.3       5 GLC5        0.0000 
@<TRIPOS>BOND
@<TRIPOS>SUBSTRUCTURE
     1 ALC1       35 GROUP        1 X    ALC  0     ROOT ALC X 1
     2 SEC2        4 GROUP        1 X    SEC  0     **** SEC X 2
     3 LYC4       15 GROUP        1 X    LYC  0     **** LYC X 4
     4 ZIC7        1 GROUP        1 X    ZIC  0     **** ZIC X 5
     5 GLC5       23 GROUP        1 X    GLC  0     **** GLC X 6
     6 ALP1       37 GROUP        1 Y    ALP  0     ROOT ALP Y 8
     7 SEP2        6 GROUP        1 Y    SEP  0     **** SEP Y 9
     8 LYP4       17 GROUP        1 Y    LYP  0     **** LYP Y 11
     9 ZIP7        3 GROUP        1 Y    ZIP  0     **** ZIP Y 12
    10 GLP5       25 GROUP        1 Y    GLP  0     **** GLP Y 13
    11 ALL1       36 GROUP        1 Z    ALL  0     ROOT ALL Z 15
    12 SEL2        5 GROUP        1 Z    SEL  0     **** SEL Z 16
    13 LYL4       16 GROUP        1 Z    LYL  0     **** LYL Z 18
    14 ZIL7        2 GROUP        1 Z    ZIL  0     **** ZIL Z 19
    15 GLL5       24 GROUP        1 Z    GLL  0     **** GLL Z 20
@<TRIPOS>SET

