#    Name: 1o6y_ACP_1_ligand
#    Modification time : Mon Mar 24 19:43:25 2014

@<TRIPOS>MOLECULE
1o6y_ACP_1_ligand
   45    47     1     0     0
SMALL
NO_CHARGES


@<TRIPOS>ATOM
      1 PG         79.5020   82.7830   21.9910 P.3       1 ACP1279     0.0000 
      2 O1G        79.6010   82.2810   20.5950 O.co2     1 ACP1279     0.0000 
      3 O2G        80.0950   84.1690   22.1250 O.co2     1 ACP1279     0.0000 
      4 O3G        78.0600   82.8720   22.3110 O.co2     1 ACP1279     0.0000 
      5 PB         81.4880   80.5560   22.5380 P.3       1 ACP1279     0.0000 
      6 O1B        82.7570   81.3250   22.1900 O.co2     1 ACP1279     0.0000 
      7 O2B        80.9520   79.8240   21.3620 O.co2     1 ACP1279     0.0000 
      8 C3B        80.2730   81.6590   23.1340 C.3       1 ACP1279     0.0000 
      9 PA         83.0080   78.5630   23.8500 P.3       1 ACP1279     0.0000 
     10 O1A        84.3250   79.0510   23.3110 O.co2     1 ACP1279     0.0000 
     11 O2A        82.6990   77.2120   23.3580 O.co2     1 ACP1279     0.0000 
     12 O3A        81.8260   79.5160   23.6310 O.3       1 ACP1279     0.0000 
     13 O5'        83.1790   78.3890   25.3310 O.3       1 ACP1279     0.0000 
     14 C5'        83.0150   79.5440   26.1360 C.3       1 ACP1279     0.0000 
     15 C4'        83.7400   79.3020   27.4250 C.3       1 ACP1279     0.0000 
     16 O4'        83.0340   78.3270   28.1750 O.3       1 ACP1279     0.0000 
     17 C3'        85.1370   78.7030   27.2390 C.3       1 ACP1279     0.0000 
     18 O3'        86.1280   79.7080   27.1760 O.3       1 ACP1279     0.0000 
     19 C2'        85.2960   77.8810   28.4850 C.3       1 ACP1279     0.0000 
     20 O2'        85.6310   78.7850   29.5270 O.3       1 ACP1279     0.0000 
     21 C1'        83.8900   77.3430   28.7510 C.3       1 ACP1279     0.0000 
     22 N9         83.7760   76.0060   28.1080 N.pl3     1 ACP1279     0.0000 
     23 C8         83.3490   75.7360   26.8610 C.2       1 ACP1279     0.0000 
     24 N7         83.3640   74.4180   26.6260 N.2       1 ACP1279     0.0000 
     25 C5         83.8290   73.8450   27.7510 C.ar      1 ACP1279     0.0000 
     26 C6         84.0900   72.4580   28.1580 C.ar      1 ACP1279     0.0000 
     27 N6         83.8200   71.4440   27.2400 N.pl3     1 ACP1279     0.0000 
     28 N1         84.5060   72.2260   29.3970 N.ar      1 ACP1279     0.0000 
     29 C2         84.7460   73.2420   30.2870 C.ar      1 ACP1279     0.0000 
     30 N3         84.4900   74.5320   29.9690 N.ar      1 ACP1279     0.0000 
     31 C4         84.0630   74.8650   28.7310 C.ar      1 ACP1279     0.0000 
     32 H          79.4780   81.0670   23.5560 H         1 ACP1279     0.0000 
     33 H          80.7349   82.2702   23.8914 H         1 ACP1279     0.0000 
     34 H          81.9644   79.7364   26.3602 H         1 ACP1279     0.0000 
     35 H          83.4372   80.4319   25.6624 H         1 ACP1279     0.0000 
     36 H          83.8348   80.2098   27.9799 H         1 ACP1279     0.0000 
     37 H          85.1088   78.0568   26.4055 H         1 ACP1279     0.0000 
     38 H          85.9539   77.1132   28.3387 H         1 ACP1279     0.0000 
     39 H          83.7709   77.2754   29.8035 H         1 ACP1279     0.0000 
     40 H          83.0645   76.4185   26.2113 H         1 ACP1279     0.0000 
     41 H          83.4886   71.7387   26.3437 H         1 ACP1279     0.0000 
     42 H          83.9809   70.5093   27.5569 H         1 ACP1279     0.0000 
     43 H          85.1354   73.0059   31.2299 H         1 ACP1279     0.0000 
     44 H          86.6037   79.5484   26.3110 H         1 ACP1279     0.0000 
     45 H          86.2316   79.4609   29.0999 H         1 ACP1279     0.0000 
@<TRIPOS>BOND
     1    2    1 ar   
     2    3    1 ar   
     3    4    1 ar   
     4    8    1 1    
     5    6    5 ar   
     6    7    5 ar   
     7    8    5 1    
     8   12    5 1    
     9   32    8 1    
    10   33    8 1    
    11   10    9 ar   
    12   11    9 ar   
    13   12    9 1    
    14   13    9 1    
    15   14   13 1    
    16   15   14 1    
    17   34   14 1    
    18   35   14 1    
    19   16   15 1    
    20   17   15 1    
    21   36   15 1    
    22   21   16 1    
    23   18   17 1    
    24   19   17 1    
    25   37   17 1    
    26   44   18 1    
    27   20   19 1    
    28   21   19 1    
    29   38   19 1    
    30   45   20 1    
    31   22   21 1    
    32   39   21 1    
    33   23   22 1    
    34   31   22 1    
    35   24   23 2    
    36   40   23 1    
    37   25   24 1    
    38   26   25 ar   
    39   31   25 ar   
    40   27   26 1    
    41   28   26 ar   
    42   41   27 1    
    43   42   27 1    
    44   29   28 ar   
    45   30   29 ar   
    46   43   29 1    
    47   31   30 ar   
@<TRIPOS>SUBSTRUCTURE
     1 ACP1279     1 GROUP   
@<TRIPOS>SET

