#    Name: 1lwi_NAP_2_INTS_M
#    Modification time : Tue Mar 25 11:18:24 2014

@<TRIPOS>MOLECULE
1lwi_NAP_2_INTS_M
   76     0    12     0     0
SMALL
NO_CHARGES


@<TRIPOS>ATOM
      1 N         -11.8145  -53.8970   45.0170 N.am      2 SEC2        0.0000 
      2 N         -12.2530  -52.5240   45.7220 N.am     10 SEL2        0.0000 
      3 N         -11.3760  -55.2700   44.3120 N.am      6 SEP2        0.0000 
      4 N         -11.4530  -51.7580   45.0095 N.am      2 SEC2        0.0000 
      5 N         -10.6530  -50.9920   44.2970 N.am      6 SEP2        0.0000 
      6 CA        -17.1355  -55.8710   39.1975 C.3       4 GLC5        0.0000 
      7 CA        -18.6760  -54.7640   39.7640 C.3      12 GLL5        0.0000 
      8 CA        -15.5950  -56.9780   38.6310 C.3       8 GLP5        0.0000 
      9 CA        -18.7930  -56.5825   41.0810 C.3       4 GLC5        0.0000 
     10 CA        -18.9100  -58.4010   42.3980 C.3       8 GLP5        0.0000 
     11 O         -19.7620  -56.4840   38.3545 O.2       1 ALC1        0.0000 
     12 O         -19.6710  -55.6510   39.7400 O.2       9 ALL1        0.0000 
     13 O         -19.8530  -57.3170   36.9690 O.2       5 ALP1        0.0000 
     14 CA        -15.2210  -53.4720   38.4855 C.3       4 GLC5        0.0000 
     15 CA        -17.1390  -53.5080   38.5280 C.3      12 GLL5        0.0000 
     16 CA        -13.3030  -53.4360   38.4430 C.3       8 GLP5        0.0000 
     17 CA        -16.3670  -55.2430   38.5795 C.3       4 GLC5        0.0000 
     18 CA        -19.0170  -52.7570   38.5150 C.3       4 GLC5        0.0000 
     19 CA        -20.8950  -52.0060   38.5020 C.3       8 GLP5        0.0000 
     20 N         -11.7020  -49.0050   47.8885 N.am      2 SEC2        0.0000 
     21 N         -12.3510  -49.7810   49.0390 N.am     10 SEL2        0.0000 
     22 N         -11.0530  -48.2290   46.7380 N.am      6 SEP2        0.0000 
     23 CA        -16.6515  -48.9565   52.6530 C.3       4 GLC5        0.0000 
     24 CA        -15.7350  -50.8760   52.4840 C.3      12 GLL5        0.0000 
     25 CA        -17.5680  -47.0370   52.8220 C.3       8 GLP5        0.0000 
     26 O         -17.0640  -48.9705   53.2340 O.2       1 ALC1        0.0000 
     27 O         -17.0870  -50.4140   52.4110 O.2       9 ALL1        0.0000 
     28 O         -17.0410  -47.5270   54.0570 O.2       5 ALP1        0.0000 
     29 CA        -16.0465  -50.2580   55.4345 C.3       4 GLC5        0.0000 
     30 CA        -15.4180  -51.3350   53.8950 C.3      12 GLL5        0.0000 
     31 CA        -16.6750  -49.1810   56.9740 C.3       8 GLP5        0.0000 
     32 O         -16.2455  -52.9510   55.4465 O.2       1 ALC1        0.0000 
     33 O         -16.4790  -52.1880   54.3230 O.2       9 ALL1        0.0000 
     34 O         -16.0120  -53.7140   56.5700 O.2       5 ALP1        0.0000 
     35 CA        -12.5630  -53.0760   52.9655 C.3       4 GLC5        0.0000 
     36 CA        -14.1650  -52.1580   53.6960 C.3      12 GLL5        0.0000 
     37 CA        -10.9610  -53.9940   52.2350 C.3       8 GLP5        0.0000 
     38 CA        -14.1810  -54.0800   53.9625 C.3       4 GLC5        0.0000 
     39 CA        -14.1970  -56.0020   54.2290 C.3       8 GLP5        0.0000 
     40 CA        -12.8890  -51.7695   57.1380 C.3       4 GLC5        0.0000 
     41 CA        -12.2270  -51.5840   55.1500 C.3      12 GLL5        0.0000 
     42 CA        -13.5510  -51.9550   59.1260 C.3       8 GLP5        0.0000 
     43 N         -10.2675  -49.8325   58.1285 N.am      2 SEC2        0.0000 
     44 N          -9.2950  -50.4180   56.9700 N.am     10 SEL2        0.0000 
     45 N         -11.2400  -49.2470   59.2870 N.am      6 SEP2        0.0000 
     46 N          -8.0770  -50.8575   57.7850 N.am      2 SEC2        0.0000 
     47 N          -6.8590  -51.2970   58.6000 N.am      6 SEP2        0.0000 
     48 O          -9.6640  -53.0425   58.3345 O.2       1 ALC1        0.0000 
     49 O         -10.3980  -52.3640   57.2400 O.2       9 ALL1        0.0000 
     50 O          -8.9300  -53.7210   59.4290 O.2       5 ALP1        0.0000 
     51 O         -11.3120  -53.3290   56.8790 O.2       1 ALC1        0.0000 
     52 O         -12.2260  -54.2940   56.5180 O.2       5 ALP1        0.0000 
     53 N         -21.2760  -50.3115   42.5815 N.am      2 SEC2        0.0000 
     54 N         -20.8090  -48.7940   42.5230 N.am     10 SEL2        0.0000 
     55 N         -21.7430  -51.8290   42.6400 N.am      6 SEP2        0.0000 
     56 NZ        -20.7155  -48.7800   39.3555 N.4       3 LYC4        0.0000 
     57 NZ        -19.7670  -47.9060   40.3470 N.4      11 LYL4        0.0000 
     58 NZ        -21.6640  -49.6540   38.3640 N.4       7 LYP4        0.0000 
     59 NZ        -20.7165  -50.0010   39.6140 N.4       3 LYC4        0.0000 
     60 NZ        -19.7690  -50.3480   40.8640 N.4      11 LYL4        0.0000 
     61 CA        -13.3837  -50.0827   44.7895 C.3       4 GLC5        0.0000 
     62 CA        -15.5890  -50.1770   43.9850 C.3      12 GLL5        0.0000 
     63 CA        -11.2830  -49.7990   44.8660 C.3       8 GLP5        0.0000 
     64 CA        -16.7172  -54.5012   41.4321 C.3       4 GLC5        0.0000 
     65 CA        -18.4820  -53.8880   40.8390 C.3      12 GLL5        0.0000 
     66 CA        -15.3420  -55.4300   42.3710 C.3       8 GLP5        0.0000 
     67 CA        -19.4937  -52.7893   39.4976 C.3       4 GLC5        0.0000 
     68 CA        -16.9348  -51.8960   49.7520 C.3       4 GLC5        0.0000 
     69 CA        -15.2460  -51.9820   50.2520 C.3      12 GLL5        0.0000 
     70 CA        -18.5200  -51.7150   48.5070 C.3       8 GLP5        0.0000 
     71 CA        -17.2515  -52.1917   52.8265 C.3       4 GLC5        0.0000 
     72 CA        -15.4530  -52.1720   51.7420 C.3      12 GLL5        0.0000 
     73 CA        -18.9970  -52.9540   52.6490 C.3       8 GLP5        0.0000 
     74 CA        -11.2908  -52.6255   53.7465 C.3       4 GLC5        0.0000 
     75 CA        -11.4047  -52.0733   52.6707 C.3       4 GLC5        0.0000 
     76 CA        -12.4490  -50.4820   52.9960 C.3      12 GLL5        0.0000 
@<TRIPOS>BOND
@<TRIPOS>SUBSTRUCTURE
     1 ALC1       11 GROUP        1 X    ALC  0     ROOT ALC X 1
     2 SEC2        1 GROUP        1 X    SEC  0     **** SEC X 2
     3 LYC4       56 GROUP        1 X    LYC  0     **** LYC X 4
     4 GLC5        6 GROUP        1 X    GLC  0     **** GLC X 6
     5 ALP1       13 GROUP        1 Y    ALP  0     ROOT ALP Y 8
     6 SEP2        3 GROUP        1 Y    SEP  0     **** SEP Y 9
     7 LYP4       58 GROUP        1 Y    LYP  0     **** LYP Y 11
     8 GLP5        8 GROUP        1 Y    GLP  0     **** GLP Y 13
     9 ALL1       12 GROUP        1 Z    ALL  0     ROOT ALL Z 15
    10 SEL2        2 GROUP        1 Z    SEL  0     **** SEL Z 16
    11 LYL4       57 GROUP        1 Z    LYL  0     **** LYL Z 18
    12 GLL5        7 GROUP        1 Z    GLL  0     **** GLL Z 20
@<TRIPOS>SET

