#    Name: 1lwi_NAP_2_ligand
#    Modification time : Tue Mar 25 11:18:24 2014

@<TRIPOS>MOLECULE
1lwi_NAP_2_ligand
   73    77     1     0     0
SMALL
NO_CHARGES


@<TRIPOS>ATOM
      1 PA        -13.5500  -52.1590   46.3300 P.3       1 NAP350      0.0000 
      2 O1A       -12.2530  -52.5240   45.7220 O.co2     1 NAP350      0.0000 
      3 O2A       -14.6670  -53.1140   46.2460 O.co2     1 NAP350      0.0000 
      4 O5B       -13.9920  -50.8040   45.6650 O.3       1 NAP350      0.0000 
      5 C5B       -15.3800  -50.5560   45.4410 C.3       1 NAP350      0.0000 
      6 C4B       -15.5890  -50.1770   43.9850 C.3       1 NAP350      0.0000 
      7 O4B       -15.8770  -51.3040   43.1340 O.3       1 NAP350      0.0000 
      8 C3B       -16.7610  -49.2290   43.8690 C.3       1 NAP350      0.0000 
      9 O3B       -16.2820  -48.0320   43.2470 O.3       1 NAP350      0.0000 
     10 C2B       -17.7520  -49.9080   42.9460 C.3       1 NAP350      0.0000 
     11 O2B       -18.2770  -48.8240   42.1640 O.3       1 NAP350      0.0000 
     12 C1B       -16.8790  -50.8970   42.1770 C.3       1 NAP350      0.0000 
     13 N9A       -17.6120  -52.1450   41.8360 N.pl3     1 NAP350      0.0000 
     14 C8A       -18.4310  -52.7870   42.6690 C.2       1 NAP350      0.0000 
     15 N7A       -18.9770  -53.8410   42.0640 N.2       1 NAP350      0.0000 
     16 C5A       -18.4820  -53.8880   40.8390 C.ar      1 NAP350      0.0000 
     17 C6A       -18.6760  -54.7640   39.7640 C.ar      1 NAP350      0.0000 
     18 N6A       -19.6710  -55.6510   39.7400 N.pl3     1 NAP350      0.0000 
     19 N1A       -17.9670  -54.5400   38.6320 N.ar      1 NAP350      0.0000 
     20 C2A       -17.1390  -53.5080   38.5280 C.ar      1 NAP350      0.0000 
     21 N3A       -16.9580  -52.6530   39.5230 N.ar      1 NAP350      0.0000 
     22 C4A       -17.6060  -52.8190   40.6850 C.ar      1 NAP350      0.0000 
     23 O3        -13.3210  -51.8050   47.8640 O.3       1 NAP350      0.0000 
     24 PN        -13.6170  -50.5180   48.7890 P.3       1 NAP350      0.0000 
     25 O1N       -14.7680  -49.7640   48.2400 O.co2     1 NAP350      0.0000 
     26 O2N       -12.3510  -49.7810   49.0390 O.co2     1 NAP350      0.0000 
     27 O5D       -14.0270  -51.2520   50.1540 O.3       1 NAP350      0.0000 
     28 C5D       -15.2460  -51.9820   50.2520 C.3       1 NAP350      0.0000 
     29 C4D       -15.4530  -52.1720   51.7420 C.3       1 NAP350      0.0000 
     30 O4D       -14.2160  -52.6300   52.3310 O.3       1 NAP350      0.0000 
     31 C3D       -15.7350  -50.8760   52.4840 C.3       1 NAP350      0.0000 
     32 O3D       -17.0870  -50.4140   52.4110 O.3       1 NAP350      0.0000 
     33 C2D       -15.4180  -51.3350   53.8950 C.3       1 NAP350      0.0000 
     34 O2D       -16.4790  -52.1880   54.3230 O.3       1 NAP350      0.0000 
     35 C1D       -14.1650  -52.1580   53.6960 C.3       1 NAP350      0.0000 
     36 N1N       -12.9440  -51.3680   53.9630 N.pl3     1 NAP350      0.0000 
     37 C2N       -12.2270  -51.5840   55.1500 C.ar      1 NAP350      0.0000 
     38 C3N       -11.0140  -50.9300   55.3660 C.ar      1 NAP350      0.0000 
     39 C7N       -10.1530  -51.2190   56.6060 C.2       1 NAP350      0.0000 
     40 O7N        -9.2950  -50.4180   56.9700 O.2       1 NAP350      0.0000 
     41 N7N       -10.3980  -52.3640   57.2400 N.am      1 NAP350      0.0000 
     42 C4N       -10.5420  -50.0480   54.3960 C.ar      1 NAP350      0.0000 
     43 C5N       -11.2480  -49.8230   53.2170 C.ar      1 NAP350      0.0000 
     44 C6N       -12.4490  -50.4820   52.9960 C.ar      1 NAP350      0.0000 
     45 P2B       -19.7490  -48.8630   41.4870 P.3       1 NAP350      0.0000 
     46 O1X       -20.8090  -48.7940   42.5230 O.co2     1 NAP350      0.0000 
     47 O2X       -19.7670  -47.9060   40.3470 O.co2     1 NAP350      0.0000 
     48 O3X       -19.7690  -50.3480   40.8640 O.co2     1 NAP350      0.0000 
     49 H         -15.7498  -49.7337   46.0614 H         1 NAP350      0.0000 
     50 H         -15.9887  -51.4410   45.6513 H         1 NAP350      0.0000 
     51 H         -14.7103  -49.6483   43.6318 H         1 NAP350      0.0000 
     52 H         -17.1864  -49.0741   44.8058 H         1 NAP350      0.0000 
     53 H         -18.4538  -50.4024   43.5269 H         1 NAP350      0.0000 
     54 H         -16.4551  -50.4472   41.3478 H         1 NAP350      0.0000 
     55 H         -18.6074  -52.5196   43.6004 H         1 NAP350      0.0000 
     56 H         -19.7129  -56.2436   38.9356 H         1 NAP350      0.0000 
     57 H         -20.2859  -55.6439   40.5285 H         1 NAP350      0.0000 
     58 H         -16.6065  -53.3647   37.6197 H         1 NAP350      0.0000 
     59 H         -15.1777  -52.9525   49.7912 H         1 NAP350      0.0000 
     60 H         -16.0833  -51.4310   49.8594 H         1 NAP350      0.0000 
     61 H         -16.2319  -52.8614   51.9322 H         1 NAP350      0.0000 
     62 H         -15.0032  -50.1658   52.2115 H         1 NAP350      0.0000 
     63 H         -15.2300  -50.5258   54.4963 H         1 NAP350      0.0000 
     64 H         -14.2194  -53.0019   54.3746 H         1 NAP350      0.0000 
     65 H         -12.5997  -52.2262   55.8593 H         1 NAP350      0.0000 
     66 H         -11.1017  -52.9487   56.8363 H         1 NAP350      0.0000 
     67 H          -9.8562  -52.5361   58.0627 H         1 NAP350      0.0000 
     68 H          -9.6471  -49.5494   54.5556 H         1 NAP350      0.0000 
     69 H         -10.8791  -49.1709   52.5145 H         1 NAP350      0.0000 
     70 H         -12.9768  -50.3259   52.1313 H         1 NAP350      0.0000 
     71 H         -16.8949  -47.8803   42.4715 H         1 NAP350      0.0000 
     72 H         -17.0841  -49.5304   52.8793 H         1 NAP350      0.0000 
     73 H         -16.1137  -52.6780   55.1145 H         1 NAP350      0.0000 
@<TRIPOS>BOND
     1    2    1 ar   
     2    3    1 ar   
     3    4    1 1    
     4   23    1 1    
     5    5    4 1    
     6    6    5 1    
     7   49    5 1    
     8   50    5 1    
     9    7    6 1    
    10    8    6 1    
    11   51    6 1    
    12   12    7 1    
    13    9    8 1    
    14   10    8 1    
    15   52    8 1    
    16   71    9 1    
    17   11   10 1    
    18   12   10 1    
    19   53   10 1    
    20   45   11 1    
    21   13   12 1    
    22   54   12 1    
    23   14   13 1    
    24   22   13 1    
    25   15   14 2    
    26   55   14 1    
    27   16   15 1    
    28   17   16 ar   
    29   22   16 ar   
    30   18   17 1    
    31   19   17 ar   
    32   56   18 1    
    33   57   18 1    
    34   20   19 ar   
    35   21   20 ar   
    36   58   20 1    
    37   22   21 ar   
    38   24   23 1    
    39   25   24 ar   
    40   26   24 ar   
    41   27   24 1    
    42   28   27 1    
    43   29   28 1    
    44   59   28 1    
    45   60   28 1    
    46   30   29 1    
    47   31   29 1    
    48   61   29 1    
    49   35   30 1    
    50   32   31 1    
    51   33   31 1    
    52   62   31 1    
    53   72   32 1    
    54   34   33 1    
    55   35   33 1    
    56   63   33 1    
    57   73   34 1    
    58   36   35 1    
    59   64   35 1    
    60   37   36 ar   
    61   44   36 ar   
    62   38   37 ar   
    63   65   37 1    
    64   39   38 1    
    65   42   38 ar   
    66   40   39 2    
    67   41   39 am   
    68   66   41 1    
    69   67   41 1    
    70   43   42 ar   
    71   68   42 1    
    72   44   43 ar   
    73   69   43 1    
    74   70   44 1    
    75   46   45 ar   
    76   47   45 ar   
    77   48   45 ar   
@<TRIPOS>SUBSTRUCTURE
     1 NAP350      1 GROUP   
@<TRIPOS>SET

