#    Name: 2qi5_MZ7_1_INTS_M
#    Modification time : Mon Mar 24 22:11:43 2014

@<TRIPOS>MOLECULE
2qi5_MZ7_1_INTS_M
   91     0     9     0     0
SMALL
NO_CHARGES


@<TRIPOS>ATOM
      1 CA         15.1690   30.7485   16.7910 C.3       3 GLC5        0.0000 
      2 CA         16.2220   32.6100   16.3830 C.3       9 GLL5        0.0000 
      3 CA         14.1160   28.8870   17.1990 C.3       6 GLP5        0.0000 
      4 CA         16.4170   33.1120   18.7380 C.3       3 GLC5        0.0000 
      5 CA         15.5200   34.6350   17.5030 C.3       9 GLL5        0.0000 
      6 CA         17.3140   31.5890   19.9730 C.3       6 GLP5        0.0000 
      7 CA         13.8575   35.0570   18.8105 C.3       3 GLC5        0.0000 
      8 CA         12.1950   35.4790   20.1180 C.3       6 GLP5        0.0000 
      9 N          14.4685   34.8915   19.7165 N.am      2 SEC2        0.0000 
     10 N          14.8430   35.4600   18.3420 N.am      8 SEL2        0.0000 
     11 N          14.0940   34.3230   21.0910 N.am      5 SEP2        0.0000 
     12 CA         23.0800   32.8575   18.7210 C.3       3 GLC5        0.0000 
     13 CA         22.3430   33.6490   17.0670 C.3       9 GLL5        0.0000 
     14 CA         23.8170   32.0660   20.3750 C.3       6 GLP5        0.0000 
     15 CA         23.6035   36.1660   13.7780 C.3       3 GLC5        0.0000 
     16 CA         22.7110   34.9970   14.9460 C.3       9 GLL5        0.0000 
     17 CA         24.4960   37.3350   12.6100 C.3       6 GLP5        0.0000 
     18 CA         21.2465   35.2810   13.4550 C.3       3 GLC5        0.0000 
     19 CA         19.7820   35.5650   11.9640 C.3       6 GLP5        0.0000 
     20 CA         17.6810   30.6530   17.7255 C.3       3 GLC5        0.0000 
     21 CA         19.1400   30.5370   16.0960 C.3       9 GLL5        0.0000 
     22 CA         16.2220   30.7690   19.3550 C.3       6 GLP5        0.0000 
     23 N          19.4840   27.9470   17.6545 N.am      2 SEC2        0.0000 
     24 N          20.0530   28.3480   16.4180 N.am      8 SEL2        0.0000 
     25 N          18.9150   27.5460   18.8910 N.am      5 SEP2        0.0000 
     26 O          20.8600   27.9475   17.3755 O.2       1 ALC1        0.0000 
     27 O          20.0530   28.3480   16.4180 O.2       7 ALL1        0.0000 
     28 O          21.6670   27.5470   18.3330 O.2       4 ALP1        0.0000 
     29 O          21.5290   28.6940   16.9255 O.2       1 ALC1        0.0000 
     30 O          23.0050   29.0400   17.4330 O.2       4 ALP1        0.0000 
     31 O          20.5060   26.7645   14.0820 O.2       1 ALC1        0.0000 
     32 O          20.7120   28.2390   13.4590 O.2       7 ALL1        0.0000 
     33 O          20.3000   25.2900   14.7050 O.2       4 ALP1        0.0000 
     34 CA         22.7505   26.3380   13.5050 C.3       3 GLC5        0.0000 
     35 CA         22.4380   27.5660   11.9580 C.3       9 GLL5        0.0000 
     36 CA         23.0630   25.1100   15.0520 C.3       6 GLP5        0.0000 
     37 CA         26.3810   25.5480   11.2595 C.3       3 GLC5        0.0000 
     38 CA         24.7720   26.9320   11.2630 C.3       9 GLL5        0.0000 
     39 CA         27.9900   24.1640   11.2560 C.3       6 GLP5        0.0000 
     40 CA         26.6275   27.8105   11.5890 C.3       3 GLC5        0.0000 
     41 CA         28.4830   28.6890   11.9150 C.3       6 GLP5        0.0000 
     42 CA         26.0355   27.9460    9.9560 C.3       3 GLC5        0.0000 
     43 CA         27.2990   28.9600    8.6490 C.3       6 GLP5        0.0000 
     44 CA         26.4230   28.7280   12.4315 C.3       3 GLC5        0.0000 
     45 CA         24.3630   28.7670   12.9480 C.3       9 GLL5        0.0000 
     46 CA         24.9490   30.0405   14.0885 C.3       3 GLC5        0.0000 
     47 CA         25.5350   31.3140   15.2290 C.3       6 GLP5        0.0000 
     48 O          21.7550   27.5030    9.3850 O.2       1 ALC1        0.0000 
     49 O          21.9300   26.8710   10.7870 O.2       7 ALL1        0.0000 
     50 O          21.5800   28.1350    7.9830 O.2       4 ALP1        0.0000 
     51 N          22.7340   24.0845   12.6635 N.am      2 SEC2        0.0000 
     52 N          21.8350   24.8590   11.8050 N.am      8 SEL2        0.0000 
     53 N          23.6330   23.3100   13.5220 N.am      5 SEP2        0.0000 
     54 CA         17.4730   26.1975   14.5730 C.3       3 GLC5        0.0000 
     55 CA         18.3610   28.1810   14.0610 C.3       9 GLL5        0.0000 
     56 CA         16.5850   24.2140   15.0850 C.3       6 GLP5        0.0000 
     57 CA         17.4080   25.3645   13.6350 C.3       3 GLC5        0.0000 
     58 CA         18.2310   26.5150   12.1850 C.3       9 GLL5        0.0000 
     59 CA         15.6470   32.7918   14.1163 C.3       3 GLC5        0.0000 
     60 CA         14.5790   32.6300   12.2010 C.3       6 GLP5        0.0000 
     61 CA         16.0147   31.8547   18.0948 C.3       3 GLC5        0.0000 
     62 CA         15.2330   37.2052   15.7215 C.3       3 GLC5        0.0000 
     63 CA         16.4900   35.3510   16.8070 C.3       9 GLL5        0.0000 
     64 CA         13.9380   38.2240   14.4720 C.3       6 GLP5        0.0000 
     65 CA         13.7994   33.4709   16.4769 C.3       3 GLC5        0.0000 
     66 CA         11.9350   33.1540   15.7850 C.3       6 GLP5        0.0000 
     67 CA         23.7525   32.1965   15.9730 C.3       3 GLC5        0.0000 
     68 CA         21.5970   32.5090   16.3670 C.3       9 GLL5        0.0000 
     69 CA         24.1029   34.7274   16.6855 C.3       3 GLC5        0.0000 
     70 CA         25.6920   34.7870   17.5310 C.3       6 GLP5        0.0000 
     71 CA         24.7907   29.8890   11.3793 C.3       3 GLC5        0.0000 
     72 CA         25.4790   31.3580   10.4350 C.3       6 GLP5        0.0000 
     73 CA         24.2270   27.1209   13.8473 C.3       3 GLC5        0.0000 
     74 CA         24.1190   26.1070   15.4800 C.3       6 GLP5        0.0000 
     75 CA         16.2495   26.6227   12.0050 C.3       3 GLC5        0.0000 
     76 CA         17.9990   27.8080   12.6430 C.3       9 GLL5        0.0000 
     77 CA         14.3840   26.0840   11.5960 C.3       6 GLP5        0.0000 
     78 CA         16.0138   26.3605   11.0218 C.3       3 GLC5        0.0000 
     79 CA         17.9230   26.1670   10.8730 C.3       9 GLL5        0.0000 
     80 CA         15.9755   27.9565    8.9360 C.3       3 GLC5        0.0000 
     81 CA         17.1220   28.3990   10.4720 C.3       9 GLL5        0.0000 
     82 CA         14.7080   28.1600    7.6250 C.3       6 GLP5        0.0000 
     83 CA         16.2698   30.4430   11.0002 C.3       3 GLC5        0.0000 
     84 CA         15.2590   32.3140   10.8730 C.3       6 GLP5        0.0000 
     85 CA         15.8323   27.3280   11.3617 C.3       3 GLC5        0.0000 
     86 CA         17.4390   28.7450   11.7830 C.3       9 GLL5        0.0000 
     87 CA         18.5500   29.1895    9.8270 C.3       3 GLC5        0.0000 
     88 CA         17.3640   27.1070   10.0220 C.3       9 GLL5        0.0000 
     89 CA         19.7590   30.1300    8.6390 C.3       6 GLP5        0.0000 
     90 CA         16.0667   28.8534   13.3338 C.3       3 GLC5        0.0000 
     91 CA         14.3240   29.3370   14.1000 C.3       6 GLP5        0.0000 
@<TRIPOS>BOND
@<TRIPOS>SUBSTRUCTURE
     1 ALC1       26 GROUP        1 X    ALC  0     ROOT ALC X 1
     2 SEC2        9 GROUP        1 X    SEC  0     **** SEC X 2
     3 GLC5        1 GROUP        1 X    GLC  0     **** GLC X 6
     4 ALP1       28 GROUP        1 Y    ALP  0     ROOT ALP Y 8
     5 SEP2       11 GROUP        1 Y    SEP  0     **** SEP Y 9
     6 GLP5        3 GROUP        1 Y    GLP  0     **** GLP Y 13
     7 ALL1       27 GROUP        1 Z    ALL  0     ROOT ALL Z 15
     8 SEL2       10 GROUP        1 Z    SEL  0     **** SEL Z 16
     9 GLL5        2 GROUP        1 Z    GLL  0     **** GLL Z 20
@<TRIPOS>SET

