#    Name: 2qi5_MZ7_1_ligand
#    Modification time : Mon Mar 24 22:11:43 2014

@<TRIPOS>MOLECULE
2qi5_MZ7_1_ligand
   80    82     1     0     0
SMALL
NO_CHARGES


@<TRIPOS>ATOM
      1 O9         18.6240   33.2560   13.5970 O.2       1 MZ7200      0.0000 
      2 S8         18.1460   32.4480   14.6710 S.o2      1 MZ7200      0.0000 
      3 O10        17.4000   31.3250   14.1640 O.2       1 MZ7200      0.0000 
      4 C5         17.2080   33.2970   15.6800 C.ar      1 MZ7200      0.0000 
      5 C6         16.2220   32.6100   16.3830 C.ar      1 MZ7200      0.0000 
      6 C7         15.3930   33.2710   17.2860 C.ar      1 MZ7200      0.0000 
      7 C4         17.3370   34.6760   15.9100 C.ar      1 MZ7200      0.0000 
      8 C3         16.4900   35.3510   16.8070 C.ar      1 MZ7200      0.0000 
      9 C2         15.5200   34.6350   17.5030 C.ar      1 MZ7200      0.0000 
     10 N1         14.8430   35.4600   18.3420 N.2       1 MZ7200      0.0000 
     11 S1         16.5660   37.0220   17.1350 S.3       1 MZ7200      0.0000 
     12 C1         15.2630   36.7470   18.2530 C.2       1 MZ7200      0.0000 
     13 N11        19.4280   31.8300   15.4360 N.pl3     1 MZ7200      0.0000 
     14 C12        20.0930   32.8040   16.3140 C.3       1 MZ7200      0.0000 
     15 C13        21.5970   32.5090   16.3670 C.3       1 MZ7200      0.0000 
     16 C14        22.3430   33.6490   17.0670 C.3       1 MZ7200      0.0000 
     17 C15        22.2900   35.0280   16.4010 C.3       1 MZ7200      0.0000 
     18 C18        22.7110   34.9970   14.9460 C.3       1 MZ7200      0.0000 
     19 C16        19.1400   30.5370   16.0960 C.3       1 MZ7200      0.0000 
     20 C17        20.0510   29.4540   15.5080 C.3       1 MZ7200      0.0000 
     21 O18        20.0530   28.3480   16.4180 O.3       1 MZ7200      0.0000 
     22 C19        19.6500   29.0060   14.0920 C.3       1 MZ7200      0.0000 
     23 N20        20.7120   28.2390   13.4590 N.am      1 MZ7200      0.0000 
     24 C21        21.4930   28.6330   12.4470 C.2       1 MZ7200      0.0000 
     25 O22        21.4830   29.7260   11.9150 O.2       1 MZ7200      0.0000 
     26 C22        22.4380   27.5660   11.9580 C.3       1 MZ7200      0.0000 
     27 C23        23.8420   28.0730   11.6990 C.3       1 MZ7200      0.0000 
     28 C25        24.7720   26.9320   11.2630 C.3       1 MZ7200      0.0000 
     29 C24        24.3630   28.7670   12.9480 C.3       1 MZ7200      0.0000 
     30 N26        21.9300   26.8710   10.7870 N.am      1 MZ7200      0.0000 
     31 C27        21.6850   25.5630   10.8050 C.2       1 MZ7200      0.0000 
     32 O28        21.8350   24.8590   11.8050 O.2       1 MZ7200      0.0000 
     33 C29        21.2180   25.0190    9.4880 C.3       1 MZ7200      0.0000 
     34 C32        18.3610   28.1810   14.0610 C.3       1 MZ7200      0.0000 
     35 C38        17.9990   27.8080   12.6430 C.ar      1 MZ7200      0.0000 
     36 C33        18.2310   26.5150   12.1850 C.ar      1 MZ7200      0.0000 
     37 C34        17.9230   26.1670   10.8730 C.ar      1 MZ7200      0.0000 
     38 C35        17.3640   27.1070   10.0220 C.ar      1 MZ7200      0.0000 
     39 C36        17.1220   28.3990   10.4720 C.ar      1 MZ7200      0.0000 
     40 C37        17.4390   28.7450   11.7830 C.ar      1 MZ7200      0.0000 
     41 H          16.1032   31.5934   16.2325 H         1 MZ7200      0.0000 
     42 H          14.6730   32.7348   17.8010 H         1 MZ7200      0.0000 
     43 H          18.0691   35.2068   15.4103 H         1 MZ7200      0.0000 
     44 H          14.9923   37.5549   18.6812 H         1 MZ7200      0.0000 
     45 H          19.6968   32.7464   17.3278 H         1 MZ7200      0.0000 
     46 H          19.9561   33.8191   15.9414 H         1 MZ7200      0.0000 
     47 H          21.9760   32.4003   15.3548 H         1 MZ7200      0.0000 
     48 H          21.7610   31.5843   16.9129 H         1 MZ7200      0.0000 
     49 H          23.4121   33.3535   17.1837 H         1 MZ7200      0.0000 
     50 H          21.9506   33.7431   18.1067 H         1 MZ7200      0.0000 
     51 H          22.9452   35.7133   16.9562 H         1 MZ7200      0.0000 
     52 H          21.2653   35.4170   16.4764 H         1 MZ7200      0.0000 
     53 H          18.1055   30.2449   15.9319 H         1 MZ7200      0.0000 
     54 H          19.3266   30.6024   17.1652 H         1 MZ7200      0.0000 
     55 H          21.0617   29.8797   15.4511 H         1 MZ7200      0.0000 
     56 H          19.4660   29.9148   13.4972 H         1 MZ7200      0.0000 
     57 H          20.8491   27.2578   13.8805 H         1 MZ7200      0.0000 
     58 H          22.5295   26.8100   12.7854 H         1 MZ7200      0.0000 
     59 H          23.7990   28.8049   10.8958 H         1 MZ7200      0.0000 
     60 H          21.7715   27.4558    9.9415 H         1 MZ7200      0.0000 
     61 H          17.5558   28.7666   14.5046 H         1 MZ7200      0.0000 
     62 H          18.5051   27.2778   14.6539 H         1 MZ7200      0.0000 
     63 H          18.6333   25.8105   12.8206 H         1 MZ7200      0.0000 
     64 H          18.1110   25.2132   10.5383 H         1 MZ7200      0.0000 
     65 H          17.1268   26.8488    9.0532 H         1 MZ7200      0.0000 
     66 H          16.7111   29.0970    9.8414 H         1 MZ7200      0.0000 
     67 H          17.2565   29.7035   12.1168 H         1 MZ7200      0.0000 
     68 H          23.6492   34.6682   14.8378 H         1 MZ7200      0.0000 
     69 H          22.1252   34.3957   14.4026 H         1 MZ7200      0.0000 
     70 H          22.6682   35.9043   14.5276 H         1 MZ7200      0.0000 
     71 H          25.7025   27.2560   11.0923 H         1 MZ7200      0.0000 
     72 H          24.8337   26.2167   11.9590 H         1 MZ7200      0.0000 
     73 H          24.4547   26.4953   10.4212 H         1 MZ7200      0.0000 
     74 H          25.2905   29.1177   12.8185 H         1 MZ7200      0.0000 
     75 H          23.7895   29.5439   13.2077 H         1 MZ7200      0.0000 
     76 H          24.3907   28.1478   13.7328 H         1 MZ7200      0.0000 
     77 H          21.8926   25.1670    8.7648 H         1 MZ7200      0.0000 
     78 H          21.0470   24.0347    9.5324 H         1 MZ7200      0.0000 
     79 H          20.3674   25.4511    9.1883 H         1 MZ7200      0.0000 
     80 H          20.9388   28.3945   16.8798 H         1 MZ7200      0.0000 
@<TRIPOS>BOND
     1    2    1 2    
     2    3    2 2    
     3    4    2 1    
     4   13    2 1    
     5    5    4 ar   
     6    7    4 ar   
     7    6    5 ar   
     8   41    5 1    
     9    9    6 ar   
    10   42    6 1    
    11    8    7 ar   
    12   43    7 1    
    13    9    8 ar   
    14   11    8 1    
    15   10    9 1    
    16   12   10 2    
    17   12   11 1    
    18   44   12 1    
    19   14   13 1    
    20   19   13 1    
    21   15   14 1    
    22   45   14 1    
    23   46   14 1    
    24   16   15 1    
    25   47   15 1    
    26   48   15 1    
    27   17   16 1    
    28   49   16 1    
    29   50   16 1    
    30   18   17 1    
    31   51   17 1    
    32   52   17 1    
    33   68   18 1    
    34   69   18 1    
    35   70   18 1    
    36   20   19 1    
    37   53   19 1    
    38   54   19 1    
    39   21   20 1    
    40   22   20 1    
    41   55   20 1    
    42   80   21 1    
    43   23   22 1    
    44   34   22 1    
    45   56   22 1    
    46   24   23 am   
    47   57   23 1    
    48   25   24 2    
    49   26   24 1    
    50   27   26 1    
    51   30   26 1    
    52   58   26 1    
    53   28   27 1    
    54   29   27 1    
    55   59   27 1    
    56   71   28 1    
    57   72   28 1    
    58   73   28 1    
    59   74   29 1    
    60   75   29 1    
    61   76   29 1    
    62   31   30 am   
    63   60   30 1    
    64   32   31 2    
    65   33   31 1    
    66   77   33 1    
    67   78   33 1    
    68   79   33 1    
    69   35   34 1    
    70   61   34 1    
    71   62   34 1    
    72   36   35 ar   
    73   40   35 ar   
    74   37   36 ar   
    75   63   36 1    
    76   38   37 ar   
    77   64   37 1    
    78   39   38 ar   
    79   65   38 1    
    80   40   39 ar   
    81   66   39 1    
    82   67   40 1    
@<TRIPOS>SUBSTRUCTURE
     1 MZ7200      1 GROUP   
@<TRIPOS>SET

