#    Name: 1ZXC_2_CAVITY_N1_ALL.mol2
#    Modification time : Mon Mar 10 23:39:28 2014

@<TRIPOS>MOLECULE
1ZXC_2_CAVITY_N1_ALL.mol2
  100     0     6     0     0
SMALL
NO_CHARGES


@<TRIPOS>ATOM
      1 OG         24.5595   50.4816  133.3941 O.2       1 SER1        0.0000 
      2 CA         24.4542   51.6889  132.5102 C.3       5 GLY6        0.0000 
      3 DU         23.6574   48.5619  133.4251 H         6 CUB7        0.0000 
      4 N          23.5521   49.7692  132.5412 N.2       2 ALA2        0.0000 
      5 N          23.4468   50.9764  131.6572 N.2       2 ALA2        0.0000 
      6 N          23.3414   52.1837  130.7733 N.2       2 ALA2        0.0000 
      7 N          23.2361   53.3910  129.8893 N.2       2 ALA2        0.0000 
      8 CA         22.9201   57.0129  127.2375 C.3       5 GLY6        0.0000 
      9 O          22.8148   58.2202  126.3536 O.2       2 ALA2        0.0000 
     10 NZ         22.7094   59.4275  125.4696 N.2       4 LYS4        0.0000 
     11 N          22.6500   47.8494  132.5722 N.2       2 ALA2        0.0000 
     12 N          22.5447   49.0567  131.6882 N.2       2 ALA2        0.0000 
     13 N          22.4393   50.2640  130.8043 N.2       2 ALA2        0.0000 
     14 O          22.3340   51.4713  129.9203 O.2       2 ALA2        0.0000 
     15 CA         21.9127   56.3005  126.3845 C.3       5 GLY6        0.0000 
     16 NZ         21.8073   57.5077  125.5006 N.2       4 LYS4        0.0000 
     17 N          21.6426   47.1370  131.7192 N.2       2 ALA2        0.0000 
     18 CA         20.9052   55.5880  125.5316 C.3       5 GLY6        0.0000 
     19 NZ         20.7999   56.7953  124.6476 N.2       4 LYS4        0.0000 
     20 OG         24.5660   50.5205  135.9919 O.2       1 SER1        0.0000 
     21 OG         23.5585   49.8081  135.1390 O.2       1 SER1        0.0000 
     22 OG         23.4532   51.0154  134.2550 O.2       1 SER1        0.0000 
     23 CA         23.3479   52.2226  133.3711 C.3       5 GLY6        0.0000 
     24 DU         22.6564   47.8884  135.1699 H         6 CUB7        0.0000 
     25 DU         22.5511   49.0956  134.2860 H         6 CUB7        0.0000 
     26 DU         22.4458   50.3029  133.4020 H         6 CUB7        0.0000 
     27 DU         22.3404   51.5102  132.5181 H         6 CUB7        0.0000 
     28 N          22.2351   52.7175  131.6342 N.2       2 ALA2        0.0000 
     29 CA         22.1298   53.9248  130.7502 C.3       5 GLY6        0.0000 
     30 N          21.6490   47.1759  134.3170 N.2       2 ALA2        0.0000 
     31 N          21.5437   48.3832  133.4330 N.2       2 ALA2        0.0000 
     32 N          21.4383   49.5905  132.5491 N.2       2 ALA2        0.0000 
     33 N          21.3330   50.7978  131.6651 N.2       2 ALA2        0.0000 
     34 CA         21.2277   52.0051  130.7812 C.3       5 GLY6        0.0000 
     35 CA         20.8063   56.8342  127.2454 C.3       5 GLY6        0.0000 
     36 NZ         20.7010   58.0415  126.3615 N.2       4 LYS4        0.0000 
     37 N          20.4309   48.8781  131.6961 N.2       2 ALA2        0.0000 
     38 N          20.3256   50.0854  130.8122 N.2       2 ALA2        0.0000 
     39 CA         20.2202   51.2927  129.9282 C.3       5 GLY6        0.0000 
     40 N          19.7989   56.1218  126.3924 N.2       2 ALA2        0.0000 
     41 NZ         19.6936   57.3291  125.5085 N.2       4 LYS4        0.0000 
     42 N          25.4552   52.3624  130.7654 N.2       2 ALA2        0.0000 
     43 O          24.9285   58.3988  126.3457 O.2       2 ALA2        0.0000 
     44 DU         24.8232   59.6061  125.4617 H         6 CUB7        0.0000 
     45 N          24.4478   51.6500  129.9124 N.2       2 ALA2        0.0000 
     46 N          24.3424   52.8572  129.0285 N.2       2 ALA2        0.0000 
     47 O          24.0264   56.4791  126.3766 O.2       2 ALA2        0.0000 
     48 DU         23.9211   57.6864  125.4927 H         6 CUB7        0.0000 
     49 NZ         23.8158   58.8937  124.6087 N.2       4 LYS4        0.0000 
     50 O          23.3350   52.1448  128.1755 O.2       2 ALA2        0.0000 
     51 CA         23.1243   54.5594  126.4076 C.3       5 GLY6        0.0000 
     52 CA         23.0190   55.7667  125.5237 C.3       5 GLY6        0.0000 
     53 NZ         22.9137   56.9740  124.6397 N.2       4 LYS4        0.0000 
     54 N          22.0116   55.0543  124.6707 N.2       2 ALA2        0.0000 
     55 CA         20.8988   55.5491  122.9338 C.3       5 GLY6        0.0000 
     56 CA         20.4437   48.9559  136.8917 C.3       5 GLY6        0.0000 
     57 N          20.3384   50.1632  136.0077 N.2       2 ALA2        0.0000 
     58 N          20.1277   52.5778  134.2398 N.2       2 ALA2        0.0000 
     59 OD1        19.2256   50.6581  134.2708 O.3       3 ASP3        0.0000 
     60 NZ         19.1203   51.8654  133.3869 N.2       4 LYS4        0.0000 
     61 NZ         19.0150   53.0726  132.5029 N.2       4 LYS4        0.0000 
     62 CA         18.9096   54.2799  131.6190 C.3       5 GLY6        0.0000 
     63 CA         18.0075   52.3602  131.6500 C.3       5 GLY6        0.0000 
     64 CA         17.9022   53.5675  130.7660 C.3       5 GLY6        0.0000 
     65 CA         17.7969   54.7748  129.8821 C.3       5 GLY6        0.0000 
     66 O          16.8948   52.8551  129.9130 O.2       2 ALA2        0.0000 
     67 O          16.7894   54.0624  129.0291 O.2       2 ALA2        0.0000 
     68 CA         16.6841   55.2697  128.1451 C.3       5 GLY6        0.0000 
     69 N          15.8874   52.1427  129.0601 N.2       2 ALA2        0.0000 
     70 CA         15.7820   53.3500  128.1761 C.3       5 GLY6        0.0000 
     71 N          22.4522   50.3418  135.9998 N.2       2 ALA2        0.0000 
     72 N          22.3468   51.5491  135.1159 N.2       2 ALA2        0.0000 
     73 O          22.2415   52.7564  134.2319 O.2       2 ALA2        0.0000 
     74 DU         21.5501   48.4221  136.0308 H         6 CUB7        0.0000 
     75 N          21.4448   49.6294  135.1469 N.2       2 ALA2        0.0000 
     76 N          21.3394   50.8367  134.2629 N.2       2 ALA2        0.0000 
     77 O          21.2341   52.0440  133.3790 O.2       2 ALA2        0.0000 
     78 O          21.1287   53.2513  132.4950 O.2       2 ALA2        0.0000 
     79 OD1        20.5427   47.7097  135.1778 O.3       3 ASP3        0.0000 
     80 OD1        20.4373   48.9170  134.2939 O.3       3 ASP3        0.0000 
     81 OD1        20.3320   50.1243  133.4099 O.3       3 ASP3        0.0000 
     82 N          20.2267   51.3316  132.5260 N.2       2 ALA2        0.0000 
     83 CA         20.1213   52.5389  131.6421 C.3       5 GLY6        0.0000 
     84 CA         20.0160   53.7462  130.7581 C.3       5 GLY6        0.0000 
     85 OD1        19.3246   49.4119  132.5570 O.3       3 ASP3        0.0000 
     86 N          19.2192   50.6192  131.6730 N.2       2 ALA2        0.0000 
     87 O          19.1139   51.8264  130.7891 O.2       2 ALA2        0.0000 
     88 CA         19.0086   53.0337  129.9051 C.3       5 GLY6        0.0000 
     89 CA         18.9032   54.2410  129.0212 C.3       5 GLY6        0.0000 
     90 CA         18.7979   55.4483  128.1372 C.3       5 GLY6        0.0000 
     91 CA         18.6925   56.6556  127.2533 C.3       5 GLY6        0.0000 
     92 O          18.1065   51.1140  129.9361 O.2       2 ALA2        0.0000 
     93 CA         18.0011   52.3213  129.0522 C.3       5 GLY6        0.0000 
     94 CA         17.8958   53.5286  128.1682 C.3       5 GLY6        0.0000 
     95 N          17.7905   54.7359  127.2843 N.2       2 ALA2        0.0000 
     96 N          17.6851   55.9432  126.4003 N.2       2 ALA2        0.0000 
     97 N          16.9937   51.6089  128.1992 N.2       2 ALA2        0.0000 
     98 CA         16.8884   52.8162  127.3153 C.3       5 GLY6        0.0000 
     99 N          16.7830   54.0235  126.4313 N.2       2 ALA2        0.0000 
    100 O          24.4414   51.6110  127.3146 O.2       2 ALA2        0.0000 
@<TRIPOS>BOND
@<TRIPOS>SUBSTRUCTURE
     1 SER1        1 GROUP   
     2 ALA2        4 GROUP   
     3 ASP3       59 GROUP   
     4 LYS4       10 GROUP   
     5 GLY6        2 GROUP   
     6 CUB7        3 GROUP   
@<TRIPOS>SET

