#    Name: 1zxc_IH6_2_INTS_M
#    Modification time : Mon Mar 24 17:54:59 2014

@<TRIPOS>MOLECULE
1zxc_IH6_2_INTS_M
   63     0    12     0     0
SMALL
NO_CHARGES


@<TRIPOS>ATOM
      1 CA         17.7425   57.9705  126.6955 C.3       4 GLC5        0.0000 
      2 CA         18.0020   56.1190  127.1060 C.3      12 GLL5        0.0000 
      3 CA         17.4830   59.8220  126.2850 C.3       8 GLP5        0.0000 
      4 CA         16.3110   55.9530  126.0120 C.3       4 GLC5        0.0000 
      5 CA         14.6200   55.7870  124.9180 C.3       8 GLP5        0.0000 
      6 CA         15.0315   54.2945  128.0990 C.3       4 GLC5        0.0000 
      7 CA         16.2490   52.8410  128.9270 C.3      12 GLL5        0.0000 
      8 CA         13.8140   55.7480  127.2710 C.3       8 GLP5        0.0000 
      9 CA         15.7455   54.4325  130.2265 C.3       4 GLC5        0.0000 
     10 CA         15.2420   56.0240  131.5260 C.3       8 GLP5        0.0000 
     11 CA         15.1830   52.2850  130.3610 C.3       4 GLC5        0.0000 
     12 CA         14.1170   51.7290  131.7950 C.3       8 GLP5        0.0000 
     13 CA         14.1615   52.3355  128.5155 C.3       4 GLC5        0.0000 
     14 CA         12.0740   51.8300  128.1040 C.3       8 GLP5        0.0000 
     15 CA         15.9570   52.5980  126.8195 C.3       4 GLC5        0.0000 
     16 CA         15.6650   52.3550  124.7120 C.3       8 GLP5        0.0000 
     17 CA         16.4820   54.2690  131.2145 C.3       4 GLC5        0.0000 
     18 CA         17.7220   52.5140  130.9030 C.3      12 GLL5        0.0000 
     19 CA         19.3270   53.8360  134.6460 C.3       4 GLC5        0.0000 
     20 CA         19.3170   52.7220  132.7290 C.3      12 GLL5        0.0000 
     21 CA         19.3370   54.9500  136.5630 C.3       8 GLP5        0.0000 
     22 CA         17.4840   54.8105  132.7625 C.3       4 GLC5        0.0000 
     23 CA         18.0370   52.9310  132.2090 C.3      12 GLL5        0.0000 
     24 CA         16.9310   56.6900  133.3160 C.3       8 GLP5        0.0000 
     25 N          22.3965   54.3100  133.4765 N.am      2 SEC2        0.0000 
     26 N          22.2390   53.2000  133.0260 N.am     10 SEL2        0.0000 
     27 N          22.5540   55.4200  133.9270 N.am      6 SEP2        0.0000 
     28 Zn         19.8415   49.6320  134.2085 Zn        3 ZIC7        0.0000 
     29 Zn         21.8960   50.9800  134.0950 Zn       11 ZIL7        0.0000 
     30 Zn         17.7870   48.2840  134.3220 Zn        7 ZIP7        0.0000 
     31 Zn         18.5845   48.4405  134.1135 Zn        3 ZIC7        0.0000 
     32 Zn         19.3820   48.5970  133.9050 Zn       11 ZIL7        0.0000 
     33 O          19.9165   51.4855  136.2160 O.2       1 ALC1        0.0000 
     34 O          19.5850   50.2050  135.5680 O.2       9 ALL1        0.0000 
     35 O          20.2480   52.7660  136.8640 O.2       5 ALP1        0.0000 
     36 Zn         17.9980   49.2440  135.0850 Zn        3 ZIC7        0.0000 
     37 Zn         18.2090   50.2040  135.8480 Zn       11 ZIL7        0.0000 
     38 O          17.2905   50.9065  136.4410 O.2       1 ALC1        0.0000 
     39 O          18.2090   50.2040  135.8480 O.2       9 ALL1        0.0000 
     40 O          16.3720   51.6090  137.0340 O.2       5 ALP1        0.0000 
     41 O          17.8055   51.3755  135.5945 O.2       1 ALC1        0.0000 
     42 O          17.4020   52.5470  135.3410 O.2       5 ALP1        0.0000 
     43 CA         19.3645   55.9013  128.7013 C.3       4 GLC5        0.0000 
     44 CA         17.4320   54.9600  127.8090 C.3      12 GLL5        0.0000 
     45 CA         21.0120   56.2630  129.9450 C.3       8 GLP5        0.0000 
     46 CA         15.4950   55.1175  127.6702 C.3       4 GLC5        0.0000 
     47 CA         16.4205   53.4210  126.3908 C.3       4 GLC5        0.0000 
     48 CA         16.9200   54.0140  128.3300 C.3      12 GLL5        0.0000 
     49 CA         17.3742   55.9664  129.4059 C.3       4 GLC5        0.0000 
     50 CA         17.4300   57.1560  130.9180 C.3       8 GLP5        0.0000 
     51 CA         19.1142   53.9999  127.6594 C.3       4 GLC5        0.0000 
     52 CA         20.9100   53.2230  127.4250 C.3       8 GLP5        0.0000 
     53 CA         16.6913   51.4550  131.3115 C.3       4 GLC5        0.0000 
     54 CA         18.7110   51.8840  130.1230 C.3      12 GLL5        0.0000 
     55 CA         15.1660   50.7110  132.1100 C.3       8 GLP5        0.0000 
     56 CA         20.1312   52.5023  128.9017 C.3       4 GLC5        0.0000 
     57 CA         17.2500   51.6262  132.8625 C.3       4 GLC5        0.0000 
     58 CA         15.8230   50.4260  133.2560 C.3       8 GLP5        0.0000 
     59 CA         19.8660   54.5129  132.3589 C.3       4 GLC5        0.0000 
     60 CA         20.8120   56.3570  132.4470 C.3       8 GLP5        0.0000 
     61 CA         23.7425   52.4672  135.9502 C.3       4 GLC5        0.0000 
     62 CA         22.8910   51.4540  135.1310 C.3      12 GLL5        0.0000 
     63 CA         24.0220   53.9520  136.5870 C.3       8 GLP5        0.0000 
@<TRIPOS>BOND
@<TRIPOS>SUBSTRUCTURE
     1 ALC1       33 GROUP        1 X    ALC  0     ROOT ALC X 1
     2 SEC2       25 GROUP        1 X    SEC  0     **** SEC X 2
     3 ZIC7       28 GROUP        1 X    ZIC  0     **** ZIC X 5
     4 GLC5        1 GROUP        1 X    GLC  0     **** GLC X 6
     5 ALP1       35 GROUP        1 Y    ALP  0     ROOT ALP Y 8
     6 SEP2       27 GROUP        1 Y    SEP  0     **** SEP Y 9
     7 ZIP7       30 GROUP        1 Y    ZIP  0     **** ZIP Y 12
     8 GLP5        3 GROUP        1 Y    GLP  0     **** GLP Y 13
     9 ALL1       34 GROUP        1 Z    ALL  0     ROOT ALL Z 15
    10 SEL2       26 GROUP        1 Z    SEL  0     **** SEL Z 16
    11 ZIL7       29 GROUP        1 Z    ZIL  0     **** ZIL Z 19
    12 GLL5        2 GROUP        1 Z    GLL  0     **** GLL Z 20
@<TRIPOS>SET

