#    Name: 1zxc_IH6_2_ligand
#    Modification time : Mon Mar 24 17:54:59 2014

@<TRIPOS>MOLECULE
1zxc_IH6_2_ligand
   48    49     1     0     0
SMALL
NO_CHARGES


@<TRIPOS>ATOM
      1 C1         18.0020   56.1190  127.1060 C.3       1 IH6478      0.0000 
      2 C2         17.4320   54.9600  127.8090 C.1       1 IH6478      0.0000 
      3 C3         16.9200   54.0140  128.3300 C.1       1 IH6478      0.0000 
      4 C4         16.2490   52.8410  128.9270 C.3       1 IH6478      0.0000 
      5 O1         16.4790   52.6790  130.3380 O.3       1 IH6478      0.0000 
      6 C5         17.7220   52.5140  130.9030 C.ar      1 IH6478      0.0000 
      7 C6         18.7110   51.8840  130.1230 C.ar      1 IH6478      0.0000 
      8 C7         19.9940   51.6790  130.6340 C.ar      1 IH6478      0.0000 
      9 C8         20.2890   52.0910  131.9360 C.ar      1 IH6478      0.0000 
     10 C9         19.3170   52.7220  132.7290 C.ar      1 IH6478      0.0000 
     11 C10        18.0370   52.9310  132.2090 C.ar      1 IH6478      0.0000 
     12 S1         21.9280   51.8710  132.5800 S.o2      1 IH6478      0.0000 
     13 O2         22.7860   51.3970  131.5100 O.2       1 IH6478      0.0000 
     14 O3         22.2390   53.2000  133.0260 O.2       1 IH6478      0.0000 
     15 N1         21.8960   50.9800  134.0950 N.pl3     1 IH6478      0.0000 
     16 C11        22.8910   51.4540  135.1310 C.3       1 IH6478      0.0000 
     17 C12        24.0350   50.5110  135.4960 C.3       1 IH6478      0.0000 
     18 S2         23.4030   48.9140  136.0540 S.3       1 IH6478      0.0000 
     19 C13        22.6870   48.4410  134.4300 C.3       1 IH6478      0.0000 
     20 C14        21.5630   49.5490  134.4840 C.3       1 IH6478      0.0000 
     21 C15        20.0550   49.3670  134.5730 C.2       1 IH6478      0.0000 
     22 O4         19.3820   48.5970  133.9050 O.2       1 IH6478      0.0000 
     23 N2         19.5850   50.2050  135.5680 N.am      1 IH6478      0.0000 
     24 O5         18.2090   50.2040  135.8480 O.3       1 IH6478      0.0000 
     25 C16        23.7610   48.5240  133.3110 C.3       1 IH6478      0.0000 
     26 C17        22.3210   46.9730  134.6210 C.3       1 IH6478      0.0000 
     27 H          16.5774   51.9234  128.3758 H         1 IH6478      0.0000 
     28 H          15.1508   52.9158  128.7223 H         1 IH6478      0.0000 
     29 H          18.4810   51.5744  129.1698 H         1 IH6478      0.0000 
     30 H          20.7122   51.2310  130.0604 H         1 IH6478      0.0000 
     31 H          19.5465   53.0242  133.6766 H         1 IH6478      0.0000 
     32 H          17.3185   53.3918  132.7809 H         1 IH6478      0.0000 
     33 H          22.3376   51.7134  136.0702 H         1 IH6478      0.0000 
     34 H          23.3331   52.4250  134.7885 H         1 IH6478      0.0000 
     35 H          24.6073   50.8394  136.3331 H         1 IH6478      0.0000 
     36 H          24.6463   50.2413  134.6655 H         1 IH6478      0.0000 
     37 H          21.7108   49.8115  135.8149 H         1 IH6478      0.0000 
     38 H          20.2126   50.8107  136.0895 H         1 IH6478      0.0000 
     39 H          18.8891   55.9056  126.6966 H         1 IH6478      0.0000 
     40 H          17.4066   56.4349  126.3673 H         1 IH6478      0.0000 
     41 H          18.1422   56.8946  127.7215 H         1 IH6478      0.0000 
     42 H          24.1313   49.4484  133.2194 H         1 IH6478      0.0000 
     43 H          24.5336   47.9154  133.4918 H         1 IH6478      0.0000 
     44 H          23.3886   48.2678  132.4190 H         1 IH6478      0.0000 
     45 H          23.1330   46.3921  134.6771 H         1 IH6478      0.0000 
     46 H          21.7975   46.8269  135.4604 H         1 IH6478      0.0000 
     47 H          21.7651   46.6274  133.8650 H         1 IH6478      0.0000 
     48 H          18.0060   51.1352  136.1510 H         1 IH6478      0.0000 
@<TRIPOS>BOND
     1    2    1 1    
     2   39    1 1    
     3   40    1 1    
     4   41    1 1    
     5    3    2 3    
     6    4    3 1    
     7    5    4 1    
     8   27    4 1    
     9   28    4 1    
    10    6    5 1    
    11    7    6 ar   
    12   11    6 ar   
    13    8    7 ar   
    14   29    7 1    
    15    9    8 ar   
    16   30    8 1    
    17   10    9 ar   
    18   12    9 1    
    19   11   10 ar   
    20   31   10 1    
    21   32   11 1    
    22   13   12 2    
    23   14   12 2    
    24   15   12 1    
    25   16   15 1    
    26   20   15 1    
    27   17   16 1    
    28   33   16 1    
    29   34   16 1    
    30   18   17 1    
    31   35   17 1    
    32   36   17 1    
    33   19   18 1    
    34   20   19 1    
    35   25   19 1    
    36   26   19 1    
    37   21   20 1    
    38   37   20 1    
    39   22   21 2    
    40   23   21 am   
    41   24   23 1    
    42   38   23 1    
    43   48   24 1    
    44   42   25 1    
    45   43   25 1    
    46   44   25 1    
    47   45   26 1    
    48   46   26 1    
    49   47   26 1    
@<TRIPOS>SUBSTRUCTURE
     1 IH6478      1 GROUP   
@<TRIPOS>SET

