#    Name: 4fga_ALA_TYR_LYS_1_INTS_M
#    Modification time : Mon Mar 24 19:58:47 2014

@<TRIPOS>MOLECULE
4fga_ALA_TYR_LYS_1_INTS_M
   51     0     6     0     0
SMALL
NO_CHARGES


@<TRIPOS>ATOM
      1 CA         36.5455    4.9790   -3.7135 C.3       2 GLC5        0.0000 
      2 CA         36.5010    4.5710   -5.8180 C.3       6 GLL5        0.0000 
      3 CA         36.5900    5.3870   -1.6090 C.3       4 GLP5        0.0000 
      4 CA         35.3550    3.6710   -4.2585 C.3       2 GLC5        0.0000 
      5 CA         34.2090    2.7710   -2.6990 C.3       4 GLP5        0.0000 
      6 CA         35.3925    2.8890   -6.4890 C.3       2 GLC5        0.0000 
      7 CA         34.2840    1.2070   -7.1600 C.3       4 GLP5        0.0000 
      8 CA         35.9410    2.9760   -7.8780 C.3       2 GLC5        0.0000 
      9 CA         37.0600    4.4010   -7.2220 C.3       6 GLL5        0.0000 
     10 CA         34.8220    1.5510   -8.5340 C.3       4 GLP5        0.0000 
     11 CA         33.3715    7.1180   -7.1095 C.3       2 GLC5        0.0000 
     12 CA         32.8900    5.0900   -7.0230 C.3       6 GLL5        0.0000 
     13 CA         33.8530    9.1460   -7.1960 C.3       4 GLP5        0.0000 
     14 CA         33.5870    3.1485   -7.0915 C.3       2 GLC5        0.0000 
     15 CA         30.9605    5.4860   -2.1275 C.3       2 GLC5        0.0000 
     16 CA         29.7180    5.8340   -3.8070 C.3       6 GLL5        0.0000 
     17 CA         32.2030    5.1380   -0.4480 C.3       4 GLP5        0.0000 
     18 CA         26.6065    4.6765   -3.5440 C.3       2 GLC5        0.0000 
     19 CA         28.3510    5.9480   -3.1440 C.3       6 GLL5        0.0000 
     20 CA         24.8620    3.4050   -3.9440 C.3       4 GLP5        0.0000 
     21 CA         27.8655    5.6480   -1.3190 C.3       2 GLC5        0.0000 
     22 CA         27.3800    5.3480    0.5060 C.3       4 GLP5        0.0000 
     23 CA         25.9460    5.6150   -4.4885 C.3       2 GLC5        0.0000 
     24 CA         27.3980    6.8140   -3.9560 C.3       6 GLL5        0.0000 
     25 CA         24.4940    4.4160   -5.0210 C.3       4 GLP5        0.0000 
     26 CA         27.2395    9.7635   -2.3775 C.3       2 GLC5        0.0000 
     27 CA         27.1120    8.1610   -3.3190 C.3       6 GLL5        0.0000 
     28 CA         27.3670   11.3660   -1.4360 C.3       4 GLP5        0.0000 
     29 OD1        25.1515    9.5325   -4.8435 O.co2     1 ASC3        0.0000 
     30 OD1        25.9410    8.7090   -4.0760 O.co2     5 ASL3        0.0000 
     31 OD1        24.3620   10.3560   -5.6110 O.co2     3 ASP3        0.0000 
     32 CA         36.5412    6.5770   -6.8215 C.3       2 GLC5        0.0000 
     33 CA         36.3020    8.6680   -7.1230 C.3       4 GLP5        0.0000 
     34 CA         31.3272    3.1727   -7.5180 C.3       2 GLC5        0.0000 
     35 CA         30.1000    1.6190   -7.4150 C.3       4 GLP5        0.0000 
     36 CA         33.4898    6.9143   -9.4682 C.3       2 GLC5        0.0000 
     37 CA         32.4480    5.1180   -9.5020 C.3       6 GLL5        0.0000 
     38 CA         34.9890    8.2170   -9.2270 C.3       4 GLP5        0.0000 
     39 CA         34.3605    6.7428  -10.0370 C.3       2 GLC5        0.0000 
     40 CA         33.6130    4.9050  -10.2680 C.3       6 GLL5        0.0000 
     41 CA         33.8976    3.1869   -9.0491 C.3       2 GLC5        0.0000 
     42 CA         33.6643    7.4680  -10.3365 C.3       2 GLC5        0.0000 
     43 CA         32.9230    6.5970  -11.8220 C.3       6 GLL5        0.0000 
     44 CA         30.3510    7.3650   -3.2677 C.3       2 GLC5        0.0000 
     45 CA         29.7900    6.4120   -5.2300 C.3       6 GLL5        0.0000 
     46 CA         30.9480    8.6070   -2.0170 C.3       4 GLP5        0.0000 
     47 CA         28.9542    3.9215   -2.6398 C.3       2 GLC5        0.0000 
     48 CA         28.8740    1.9520   -1.8040 C.3       4 GLP5        0.0000 
     49 CA         29.2206    7.9390   -2.7258 C.3       2 GLC5        0.0000 
     50 CA         26.1111    6.3655   -2.6282 C.3       2 GLC5        0.0000 
     51 CA         24.7290    5.4600   -1.8220 C.3       4 GLP5        0.0000 
@<TRIPOS>BOND
@<TRIPOS>SUBSTRUCTURE
     1 ASC3       29 GROUP        1 X    ASC  0     ROOT ASC X 3
     2 GLC5        1 GROUP        1 X    GLC  0     **** GLC X 6
     3 ASP3       31 GROUP        1 Y    ASP  0     ROOT ASP Y 10
     4 GLP5        3 GROUP        1 Y    GLP  0     **** GLP Y 13
     5 ASL3       30 GROUP        1 Z    ASL  0     ROOT ASL Z 17
     6 GLL5        2 GROUP        1 Z    GLL  0     **** GLL Z 20
@<TRIPOS>SET

