#    Name: 4fga_ALA_TYR_LYS_1_ligand
#    Modification time : Mon Mar 24 19:58:47 2014

@<TRIPOS>MOLECULE
4fga_ALA_TYR_LYS_1_ligand
   57    57     3     0     0
SMALL
NO_CHARGES


@<TRIPOS>ATOM
      1 N          36.5590    3.3080   -5.0920 N.4       1 ALA3        0.0000
      2 CA         36.5010    4.5710   -5.8180 C.3       1 ALA3        0.0000
      3 C          35.1230    5.2080   -5.9680 C.2       1 ALA3        0.0000
      4 O          34.8060    6.1890   -5.2950 O.2       1 ALA3        0.0000
      5 CB         37.0600    4.4010   -7.2220 C.3       1 ALA3        0.0000
      6 HA         37.1513    5.3206   -5.3281 H         1 ALA3        0.0000
      7 H          37.4923    2.9530   -5.0382 H         1 ALA3        0.0000
      8 H          36.2272    3.4035   -4.1535 H         1 ALA3        0.0000
      9 H          36.0017    2.6022   -5.5295 H         1 ALA3        0.0000
     10 HB1        38.0136    4.1003   -7.2082 H         1 ALA3        0.0000
     11 HB2        36.5462    3.7222   -7.7466 H         1 ALA3        0.0000
     12 HB3        37.0297    5.2559   -7.7398 H         1 ALA3        0.0000
     13 N          34.3090    4.6440   -6.8540 N.am      2 TYR4        0.0000
     14 CA         32.8900    5.0900   -7.0230 C.3       2 TYR4        0.0000
     15 C          31.9310    5.2650   -5.8010 C.2       2 TYR4        0.0000
     16 O          32.3130    5.0730   -4.6250 O.2       2 TYR4        0.0000
     17 CB         32.2190    4.3630   -8.2190 C.3       2 TYR4        0.0000
     18 CG         32.4480    5.1180   -9.5020 C.ar      2 TYR4        0.0000
     19 CD1        31.5330    6.1050   -9.9170 C.ar      2 TYR4        0.0000
     20 CD2        33.6130    4.9050  -10.2680 C.ar      2 TYR4        0.0000
     21 CE1        31.7560    6.8410  -11.0700 C.ar      2 TYR4        0.0000
     22 CE2        33.8510    5.6320  -11.4260 C.ar      2 TYR4        0.0000
     23 CZ         32.9230    6.5970  -11.8220 C.ar      2 TYR4        0.0000
     24 OH         33.1360    7.3240  -12.9710 O.3       2 TYR4        0.0000
     25 HNCA       34.5969    3.8679   -7.4796 H         2 TYR4        0.0000
     26 HA         32.9803    6.1970   -7.4555 H         2 TYR4        0.0000
     27 HB2        31.1524    4.2826   -8.0161 H         2 TYR4        0.0000
     28 HB3        32.6413    3.3622   -8.2919 H         2 TYR4        0.0000
     29 HD1        30.6885    6.2750   -9.3485 H         2 TYR4        0.0000
     30 HD2        34.2937    4.1946   -9.9540 H         2 TYR4        0.0000
     31 HE1        31.0927    7.5504  -11.3786 H         2 TYR4        0.0000
     32 HE2        34.6907    5.4665  -11.9824 H         2 TYR4        0.0000
     33 HH         33.5839    6.6885  -13.5999 H         2 TYR4        0.0000
     34 N          30.6850    5.6330   -6.1230 N.am      3 LYS5        0.0000
     35 CA         29.7900    6.4120   -5.2300 C.3       3 LYS5        0.0000
     36 C          30.1660    7.9330   -5.1960 C.2       3 LYS5        0.0000
     37 O          29.3530    8.8470   -4.9530 O.2       3 LYS5        0.0000
     38 CB         29.7180    5.8340   -3.8070 C.3       3 LYS5        0.0000
     39 CG         28.3510    5.9480   -3.1440 C.3       3 LYS5        0.0000
     40 CD         27.3980    6.8140   -3.9560 C.3       3 LYS5        0.0000
     41 CE         27.1120    8.1610   -3.3190 C.3       3 LYS5        0.0000
     42 NZ         25.9410    8.7090   -4.0760 N.4       3 LYS5        0.0000
     43 OXT        31.3190    8.3220   -5.4190 O.3       3 LYS5        0.0000
     44 HNCA       30.2592    5.3836   -7.0527 H         3 LYS5        0.0000
     45 HA         28.7561    6.3691   -5.6425 H         3 LYS5        0.0000
     46 HB2        30.4677    6.3492   -3.1802 H         3 LYS5        0.0000
     47 HB3        30.0139    4.7703   -3.8444 H         3 LYS5        0.0000
     48 HG2        28.4705    6.3816   -2.1465 H         3 LYS5        0.0000
     49 HG3        27.9217    4.9479   -3.0315 H         3 LYS5        0.0000
     50 HD2        26.4491    6.2703   -4.0925 H         3 LYS5        0.0000
     51 HD3        27.8258    6.9725   -4.9593 H         3 LYS5        0.0000
     52 HE2        27.9620    8.7999   -3.4361 H         3 LYS5        0.0000
     53 HE3        26.8570    8.0230   -2.2893 H         3 LYS5        0.0000
     54 HZ1        25.6623    9.6053   -3.7311 H         3 LYS5        0.0000
     55 HZ2        26.1464    8.8201   -5.0484 H         3 LYS5        0.0000
     56 HZ3        25.1435    8.1092   -4.0115 H         3 LYS5        0.0000
     57 H          31.9010    7.5336   -5.2200 H         3 LYS5        0.0000
@<TRIPOS>BOND
     1    2    1 1
     2    7    1 1
     3    8    1 1
     4    9    1 1
     5    3    2 1
     6    5    2 1
     7    6    2 1
     8    4    3 2
     9   10    5 1
    10   11    5 1
    11   12    5 1
    12   14   13 1
    13   25   13 1
    14   15   14 1
    15   17   14 1
    16   26   14 1
    17   16   15 2
    18   18   17 1
    19   27   17 1
    20   28   17 1
    21   19   18 ar
    22   20   18 ar
    23   21   19 ar
    24   29   19 1
    25   22   20 ar
    26   30   20 1
    27   23   21 ar
    28   31   21 1
    29   23   22 ar
    30   32   22 1
    31   24   23 1
    32   33   24 1
    33   35   34 1
    34   44   34 1
    35   36   35 1
    36   38   35 1
    37   45   35 1
    38   37   36 2
    39   43   36 1
    40   39   38 1
    41   46   38 1
    42   47   38 1
    43   40   39 1
    44   48   39 1
    45   49   39 1
    46   41   40 1
    47   50   40 1
    48   51   40 1
    49   42   41 1
    50   52   41 1
    51   53   41 1
    52   54   42 1
    53   55   42 1
    54   56   42 1
    55   57   43 1
    56   13    3 am
    57   34   15 am
@<TRIPOS>SUBSTRUCTURE
     1 ALA3        1 RESIDUE
     2 TYR4       13 RESIDUE
     3 LYS5       34 RESIDUE
@<TRIPOS>SET

