#    Name: 3s7m_532_1_INTS_M
#    Modification time : Tue Mar 25 12:16:17 2014

@<TRIPOS>MOLECULE
3s7m_532_1_INTS_M
   48     0     9     0     0
SMALL
NO_CHARGES


@<TRIPOS>ATOM
      1 CA         16.3060  -12.5480   18.9985 C.3       3 GLC5        0.0000 
      2 CA         15.2890  -10.6870   18.3600 C.3       9 GLL5        0.0000 
      3 CA         17.3230  -14.4090   19.6370 C.3       6 GLP5        0.0000 
      4 CA         15.7365  -10.2940   20.4815 C.3       3 GLC5        0.0000 
      5 CA         16.1840   -9.9010   22.6030 C.3       6 GLP5        0.0000 
      6 O          15.0435   -7.2490   14.1550 O.2       1 ALC1        0.0000 
      7 O          14.6860   -6.8160   15.3110 O.2       7 ALL1        0.0000 
      8 O          15.4010   -7.6820   12.9990 O.2       4 ALP1        0.0000 
      9 O          16.0350   -5.4185   13.5100 O.2       1 ALC1        0.0000 
     10 O          16.1010   -5.0640   14.8780 O.2       7 ALL1        0.0000 
     11 O          15.9690   -5.7730   12.1420 O.2       4 ALP1        0.0000 
     12 O          15.7510   -6.3730   13.9385 O.2       1 ALC1        0.0000 
     13 O          16.6785   -3.8065   14.9235 O.2       1 ALC1        0.0000 
     14 O          17.2560   -2.5490   14.9690 O.2       4 ALP1        0.0000 
     15 OD1        15.7510   -6.3730   13.9385 O.co2     2 ASC3        0.0000 
     16 OD1        15.2620   -5.7300   15.6720 O.co2     8 ASL3        0.0000 
     17 OD1        15.9690   -5.7730   12.1420 O.co2     5 ASP3        0.0000 
     18 OD1        15.0435   -7.2490   14.1550 O.co2     2 ASC3        0.0000 
     19 OD1        15.4010   -7.6820   12.9990 O.co2     5 ASP3        0.0000 
     20 OD1        16.6785   -3.8065   14.9235 O.co2     2 ASC3        0.0000 
     21 OD1        17.2560   -2.5490   14.9690 O.co2     5 ASP3        0.0000 
     22 CA          8.4215   -2.5285   12.6360 C.3       3 GLC5        0.0000 
     23 CA          8.9110   -2.4470   14.3530 C.3       9 GLL5        0.0000 
     24 CA          7.9320   -2.6100   10.9190 C.3       6 GLP5        0.0000 
     25 CA          9.1920   -3.3775   12.5915 C.3       3 GLC5        0.0000 
     26 CA         10.4520   -4.1450   14.2640 C.3       9 GLL5        0.0000 
     27 CA         12.0795   -3.7415   13.4690 C.3       3 GLC5        0.0000 
     28 CA         13.7070   -3.3380   12.6740 C.3       6 GLP5        0.0000 
     29 CA         13.1355   -9.9365   14.8995 C.3       3 GLC5        0.0000 
     30 CA         14.9500   -9.6310   16.0280 C.3       9 GLL5        0.0000 
     31 CA         11.3210  -10.2420   13.7710 C.3       6 GLP5        0.0000 
     32 CA         11.7065   -9.0880   15.1933 C.3       3 GLC5        0.0000 
     33 CA         12.4820   -7.3790   16.4460 C.3       9 GLL5        0.0000 
     34 CA         10.6597   -9.0413   15.0865 C.3       3 GLC5        0.0000 
     35 CA         10.3130   -8.4160   16.6350 C.3       9 GLL5        0.0000 
     36 CA         10.8878   -6.7562   14.0171 C.3       3 GLC5        0.0000 
     37 CA          9.6840   -7.2650   16.1690 C.3       9 GLL5        0.0000 
     38 CA         10.8250   -7.0360   12.0460 C.3       6 GLP5        0.0000 
     39 CA         10.4988   -5.7687   13.4213 C.3       3 GLC5        0.0000 
     40 CA          9.8930   -4.8580   15.3290 C.3       9 GLL5        0.0000 
     41 CA          6.9212   -4.4782   15.9878 C.3       3 GLC5        0.0000 
     42 CA          8.7570   -4.2710   15.9140 C.3       9 GLL5        0.0000 
     43 CA          5.3320   -5.2890   16.3060 C.3       6 GLP5        0.0000 
     44 CA          6.8762   -2.4358   14.1810 C.3       3 GLC5        0.0000 
     45 CA          8.2640   -3.0640   15.4250 C.3       9 GLL5        0.0000 
     46 CA          5.1650   -2.1160   13.4730 C.3       6 GLP5        0.0000 
     47 CA         16.6527   -9.9868   15.0783 C.3       3 GLC5        0.0000 
     48 CA         18.1390   -9.7720   13.8130 C.3       6 GLP5        0.0000 
@<TRIPOS>BOND
@<TRIPOS>SUBSTRUCTURE
     1 ALC1        6 GROUP        1 X    ALC  0     ROOT ALC X 1
     2 ASC3       15 GROUP        1 X    ASC  0     **** ASC X 3
     3 GLC5        1 GROUP        1 X    GLC  0     **** GLC X 6
     4 ALP1        8 GROUP        1 Y    ALP  0     ROOT ALP Y 8
     5 ASP3       17 GROUP        1 Y    ASP  0     **** ASP Y 10
     6 GLP5        3 GROUP        1 Y    GLP  0     **** GLP Y 13
     7 ALL1        7 GROUP        1 Z    ALL  0     ROOT ALL Z 15
     8 ASL3       16 GROUP        1 Z    ASL  0     **** ASL Z 17
     9 GLL5        2 GROUP        1 Z    GLL  0     **** GLL Z 20
@<TRIPOS>SET

