#    Name: 3s7m_532_1_ligand
#    Modification time : Tue Mar 25 12:16:17 2014

@<TRIPOS>MOLECULE
3s7m_532_1_ligand
   42    45     1     0     0
SMALL
NO_CHARGES


@<TRIPOS>ATOM
      1 C1         15.5560   -4.1120   17.5410 C.3       1 5321        0.0000 
      2 N1         15.0710   -5.3190   16.9310 N.am      1 5321        0.0000 
      3 O1         13.9150   -6.1080   18.7490 O.2       1 5321        0.0000 
      4 S1         15.2890  -10.6870   18.3600 S.3       1 5321        0.0000 
      5 C2         14.3030   -6.2060   17.5860 C.2       1 5321        0.0000 
      6 N2         14.6860   -6.8160   15.3110 N.pl3     1 5321        0.0000 
      7 C3         13.9990   -7.2910   16.5540 C.3       1 5321        0.0000 
      8 N3         16.1010   -5.0640   14.8780 N.pl3     1 5321        0.0000 
      9 C4         15.2620   -5.7300   15.6720 C.cat     1 5321        0.0000 
     10 N4          9.9950   -2.9650   13.7620 N.ar      1 5321        0.0000 
     11 C5         12.4820   -7.3790   16.4460 C.ar      1 5321        0.0000 
     12 C6         11.7020   -8.4890   16.7850 C.ar      1 5321        0.0000 
     13 C7         10.3130   -8.4160   16.6350 C.ar      1 5321        0.0000 
     14 C8          9.6840   -7.2650   16.1690 C.ar      1 5321        0.0000 
     15 C9         10.4520   -6.1410   15.8180 C.ar      1 5321        0.0000 
     16 C10        11.8330   -6.2500   15.9830 C.ar      1 5321        0.0000 
     17 C11         9.8930   -4.8580   15.3290 C.ar      1 5321        0.0000 
     18 C12         8.7570   -4.2710   15.9140 C.ar      1 5321        0.0000 
     19 C13         8.2640   -3.0640   15.4250 C.ar      1 5321        0.0000 
     20 C14         8.9110   -2.4470   14.3530 C.ar      1 5321        0.0000 
     21 C15        10.4520   -4.1450   14.2640 C.ar      1 5321        0.0000 
     22 C16        14.5210   -8.6400   16.9570 C.2       1 5321        0.0000 
     23 C17        14.9500   -9.6310   16.0280 C.2       1 5321        0.0000 
     24 C18        15.3830  -10.7720   16.6590 C.2       1 5321        0.0000 
     25 C19        14.6620   -9.0950   18.2500 C.2       1 5321        0.0000 
     26 H          14.6258   -7.2981   14.5211 H         1 5321        0.0000 
     27 H          16.5505   -4.2674   15.2822 H         1 5321        0.0000 
     28 H          16.2052   -5.4210   13.9497 H         1 5321        0.0000 
     29 H          12.1393   -9.3399   17.1367 H         1 5321        0.0000 
     30 H           9.7370   -9.2464   16.8792 H         1 5321        0.0000 
     31 H           8.6640   -7.2308   16.0798 H         1 5321        0.0000 
     32 H          12.4226   -5.4029   15.7339 H         1 5321        0.0000 
     33 H           8.2948   -4.7377   16.7024 H         1 5321        0.0000 
     34 H           7.4379   -2.6335   15.8451 H         1 5321        0.0000 
     35 H           8.5093   -1.5319   14.0105 H         1 5321        0.0000 
     36 H          11.3228   -4.5807   13.8091 H         1 5321        0.0000 
     37 H          14.9284   -9.4908   15.0686 H         1 5321        0.0000 
     38 H          15.7210  -11.5911   16.3417 H         1 5321        0.0000 
     39 H          14.4829   -8.7068   19.0887 H         1 5321        0.0000 
     40 H          16.1232   -4.3027   18.3422 H         1 5321        0.0000 
     41 H          16.1135   -3.5743   16.9085 H         1 5321        0.0000 
     42 H          14.8074   -3.5229   17.8454 H         1 5321        0.0000 
@<TRIPOS>BOND
     1    2    1 1    
     2   40    1 1    
     3   41    1 1    
     4   42    1 1    
     5    5    2 am   
     6    9    2 ar   
     7    5    3 2    
     8   24    4 1    
     9   25    4 1    
    10    7    5 1    
    11    7    6 1    
    12    9    6 ar   
    13   26    6 1    
    14   11    7 1    
    15   22    7 1    
    16    9    8 ar   
    17   27    8 1    
    18   28    8 1    
    19   20   10 ar   
    20   21   10 ar   
    21   12   11 ar   
    22   16   11 ar   
    23   13   12 ar   
    24   29   12 1    
    25   14   13 ar   
    26   30   13 1    
    27   15   14 ar   
    28   31   14 1    
    29   16   15 ar   
    30   17   15 1    
    31   32   16 1    
    32   18   17 ar   
    33   21   17 ar   
    34   19   18 ar   
    35   33   18 1    
    36   20   19 ar   
    37   34   19 1    
    38   35   20 1    
    39   36   21 1    
    40   23   22 1    
    41   25   22 2    
    42   24   23 2    
    43   37   23 1    
    44   38   24 1    
    45   39   25 1    
@<TRIPOS>SUBSTRUCTURE
     1 5321        1 GROUP   
@<TRIPOS>SET

