#    Name: 4iir_ANP_2_INTS_M
#    Modification time : Tue Mar 25 04:01:55 2014

@<TRIPOS>MOLECULE
4iir_ANP_2_INTS_M
   62     0    15     0     0
SMALL
NO_CHARGES


@<TRIPOS>ATOM
      1 NZ        -35.8055  -27.7280   20.7570 N.4       4 LYC4        0.0000 
      2 NZ        -34.9630  -27.6080   22.0050 N.4      14 LYL4        0.0000 
      3 NZ        -36.6480  -27.8480   19.5090 N.4       9 LYP4        0.0000 
      4 N         -35.8055  -27.7280   20.7570 N.am      2 SEC2        0.0000 
      5 N         -34.9630  -27.6080   22.0050 N.am     12 SEL2        0.0000 
      6 N         -36.6480  -27.8480   19.5090 N.am      7 SEP2        0.0000 
      7 N         -34.7795  -26.6335   21.0630 N.am      2 SEC2        0.0000 
      8 N         -34.5960  -25.6590   20.1210 N.am      7 SEP2        0.0000 
      9 OD1       -33.7510  -27.5500   25.2255 O.co2     3 ASC3        0.0000 
     10 OD1       -33.9340  -28.5900   24.1340 O.co2    13 ASL3        0.0000 
     11 OD1       -33.5680  -26.5100   26.3170 O.co2     8 ASP3        0.0000 
     12 OD1       -33.6080  -28.4175   25.8845 O.co2     3 ASC3        0.0000 
     13 OD1       -33.2820  -28.2450   27.6350 O.co2     8 ASP3        0.0000 
     14 NZ        -31.9010  -25.0665   23.9715 N.4       4 LYC4        0.0000 
     15 NZ        -30.8450  -25.9590   23.9290 N.4      14 LYL4        0.0000 
     16 NZ        -32.9570  -24.1740   24.0140 N.4       9 LYP4        0.0000 
     17 N         -31.9010  -25.0665   23.9715 N.am      2 SEC2        0.0000 
     18 N         -30.8450  -25.9590   23.9290 N.am     12 SEL2        0.0000 
     19 N         -32.9570  -24.1740   24.0140 N.am      7 SEP2        0.0000 
     20 N         -26.5835  -31.8600   23.7395 N.am      2 SEC2        0.0000 
     21 N         -27.4700  -30.6640   23.4910 N.am     12 SEL2        0.0000 
     22 N         -25.6970  -33.0560   23.9880 N.am      7 SEP2        0.0000 
     23 O         -27.4060  -31.0525   25.0480 O.2       1 ALC1        0.0000 
     24 O         -27.4700  -30.6640   23.4910 O.2      11 ALL1        0.0000 
     25 O         -27.3420  -31.4410   26.6050 O.2       6 ALP1        0.0000 
     26 CA        -27.2815  -26.7850   19.6730 C.3       5 GLC5        0.0000 
     27 CA        -26.6190  -28.2690   20.8870 C.3      15 GLL5        0.0000 
     28 CA        -27.9440  -25.3010   18.4590 C.3      10 GLP5        0.0000 
     29 CA        -24.4745  -26.2325   23.3450 C.3       5 GLC5        0.0000 
     30 CA        -25.3610  -25.0150   21.8720 C.3      15 GLL5        0.0000 
     31 CA        -23.5880  -27.4500   24.8180 C.3      10 GLP5        0.0000 
     32 CA        -22.8615  -23.5455   23.1575 C.3       5 GLC5        0.0000 
     33 CA        -24.2970  -24.1150   21.8180 C.3      15 GLL5        0.0000 
     34 CA        -21.4260  -22.9760   24.4970 C.3      10 GLP5        0.0000 
     35 O         -23.2710  -21.9755   22.1080 O.2       1 ALC1        0.0000 
     36 O         -24.3700  -22.9410   22.4370 O.2      11 ALL1        0.0000 
     37 O         -22.1720  -21.0100   21.7790 O.2       6 ALP1        0.0000 
     38 N         -21.6225  -24.1215   21.2510 N.am      2 SEC2        0.0000 
     39 N         -23.1930  -24.4480   21.1200 N.am     12 SEL2        0.0000 
     40 N         -20.0520  -23.7950   21.3820 N.am      7 SEP2        0.0000 
     41 CA        -23.8640  -27.3150   19.2230 C.3       5 GLC5        0.0000 
     42 CA        -23.1070  -25.6170   20.4880 C.3      15 GLL5        0.0000 
     43 CA        -24.6210  -29.0130   17.9580 C.3      10 GLP5        0.0000 
     44 CA        -23.8615  -23.9605   19.6490 C.3       5 GLC5        0.0000 
     45 CA        -24.6160  -22.3040   18.8100 C.3      10 GLP5        0.0000 
     46 CA        -21.8015  -25.3550   21.9790 C.3       5 GLC5        0.0000 
     47 CA        -20.4960  -25.0930   23.4700 C.3      10 GLP5        0.0000 
     48 CA        -22.9750  -26.8095   22.0570 C.3       5 GLC5        0.0000 
     49 CA        -22.8430  -28.0020   23.6260 C.3      10 GLP5        0.0000 
     50 CA        -24.9270  -27.6195   19.5825 C.3       5 GLC5        0.0000 
     51 CA        -25.2330  -26.2260   21.2070 C.3      15 GLL5        0.0000 
     52 CA        -24.0380  -27.1140   22.4165 C.3       5 GLC5        0.0000 
     53 CA        -29.6605  -27.7587   20.5333 C.3       5 GLC5        0.0000 
     54 CA        -28.4720  -29.5510   21.5670 C.3      15 GLL5        0.0000 
     55 CA        -30.1470  -26.1690   19.2890 C.3      10 GLP5        0.0000 
     56 CA        -25.7737  -28.8570   23.8170 C.3       5 GLC5        0.0000 
     57 CA        -27.5040  -29.4440   22.7390 C.3      15 GLL5        0.0000 
     58 CA        -24.7000  -28.3830   25.2620 C.3      10 GLP5        0.0000 
     59 CA        -25.5130  -28.8783   19.7020 C.3       5 GLC5        0.0000 
     60 CA        -26.1910  -29.2180   22.0050 C.3      15 GLL5        0.0000 
     61 CA        -26.6205  -25.4608   19.9992 C.3       5 GLC5        0.0000 
     62 CA        -24.7225  -23.4345   20.3275 C.3       5 GLC5        0.0000 
@<TRIPOS>BOND
@<TRIPOS>SUBSTRUCTURE
     1 ALC1       23 GROUP        1 X    ALC  0     ROOT ALC X 1
     2 SEC2        4 GROUP        1 X    SEC  0     **** SEC X 2
     3 ASC3        9 GROUP        1 X    ASC  0     **** ASC X 3
     4 LYC4        1 GROUP        1 X    LYC  0     **** LYC X 4
     5 GLC5       26 GROUP        1 X    GLC  0     **** GLC X 6
     6 ALP1       25 GROUP        1 Y    ALP  0     ROOT ALP Y 8
     7 SEP2        6 GROUP        1 Y    SEP  0     **** SEP Y 9
     8 ASP3       11 GROUP        1 Y    ASP  0     **** ASP Y 10
     9 LYP4        3 GROUP        1 Y    LYP  0     **** LYP Y 11
    10 GLP5       28 GROUP        1 Y    GLP  0     **** GLP Y 13
    11 ALL1       24 GROUP        1 Z    ALL  0     ROOT ALL Z 15
    12 SEL2        5 GROUP        1 Z    SEL  0     **** SEL Z 16
    13 ASL3       10 GROUP        1 Z    ASL  0     **** ASL Z 17
    14 LYL4        2 GROUP        1 Z    LYL  0     **** LYL Z 18
    15 GLL5       27 GROUP        1 Z    GLL  0     **** GLL Z 20
@<TRIPOS>SET

