#    Name: 4iir_ANP_2_ligand
#    Modification time : Tue Mar 25 04:01:55 2014

@<TRIPOS>MOLECULE
4iir_ANP_2_ligand
   43    45     1     0     0
SMALL
NO_CHARGES


@<TRIPOS>ATOM
      1 PG        -33.7890  -30.1470   24.6160 P.3       1 ANP1101     0.0000 
      2 O1G       -32.6860  -30.1200   25.7820 O.co2     1 ANP1101     0.0000 
      3 O2G       -33.4590  -31.1470   23.5720 O.co2     1 ANP1101     0.0000 
      4 O3G       -35.1530  -30.4810   25.3950 O.co2     1 ANP1101     0.0000 
      5 PB        -33.7440  -28.2490   22.5410 P.3       1 ANP1101     0.0000 
      6 O1B       -33.3740  -29.5710   21.6890 O.co2     1 ANP1101     0.0000 
      7 O2B       -34.9630  -27.6080   22.0050 O.co2     1 ANP1101     0.0000 
      8 N3B       -33.9340  -28.5900   24.1340 N.4       1 ANP1101     0.0000 
      9 PA        -31.1180  -27.2700   23.3010 P.3       1 ANP1101     0.0000 
     10 O1A       -31.2110  -28.4380   24.3890 O.co2     1 ANP1101     0.0000 
     11 O2A       -30.8450  -25.9590   23.9290 O.co2     1 ANP1101     0.0000 
     12 O3A       -32.4630  -27.2560   22.3880 O.3       1 ANP1101     0.0000 
     13 O5'       -29.9380  -27.7570   22.3330 O.3       1 ANP1101     0.0000 
     14 C5'       -29.8760  -29.1460   21.9880 C.3       1 ANP1101     0.0000 
     15 C4'       -28.4720  -29.5510   21.5670 C.3       1 ANP1101     0.0000 
     16 O4'       -28.0200  -28.5510   20.6160 O.3       1 ANP1101     0.0000 
     17 C3'       -27.5040  -29.4440   22.7390 C.3       1 ANP1101     0.0000 
     18 O3'       -27.4700  -30.6640   23.4910 O.3       1 ANP1101     0.0000 
     19 C2'       -26.1910  -29.2180   22.0050 C.3       1 ANP1101     0.0000 
     20 O2'       -25.7010  -30.4390   21.4360 O.3       1 ANP1101     0.0000 
     21 C1'       -26.6190  -28.2690   20.8870 C.3       1 ANP1101     0.0000 
     22 N9        -26.3610  -26.9000   21.3950 N.pl3     1 ANP1101     0.0000 
     23 C8        -27.1610  -26.1630   22.1690 C.2       1 ANP1101     0.0000 
     24 N7        -26.5550  -25.0080   22.4590 N.2       1 ANP1101     0.0000 
     25 C5        -25.3610  -25.0150   21.8720 C.ar      1 ANP1101     0.0000 
     26 C6        -24.2970  -24.1150   21.8180 C.ar      1 ANP1101     0.0000 
     27 N6        -24.3700  -22.9410   22.4370 N.pl3     1 ANP1101     0.0000 
     28 N1        -23.1930  -24.4480   21.1200 N.ar      1 ANP1101     0.0000 
     29 C2        -23.1070  -25.6170   20.4880 C.ar      1 ANP1101     0.0000 
     30 N3        -24.1030  -26.4980   20.5270 N.ar      1 ANP1101     0.0000 
     31 C4        -25.2330  -26.2260   21.2070 C.ar      1 ANP1101     0.0000 
     32 H         -30.5600  -29.3842   21.1559 H         1 ANP1101     0.0000 
     33 H         -30.1712  -29.7846   22.8377 H         1 ANP1101     0.0000 
     34 H         -28.4585  -30.5052   21.1644 H         1 ANP1101     0.0000 
     35 H         -27.7356  -28.5882   23.2909 H         1 ANP1101     0.0000 
     36 H         -25.5230  -28.7229   22.6306 H         1 ANP1101     0.0000 
     37 H         -26.0022  -28.4787   20.0427 H         1 ANP1101     0.0000 
     38 H         -28.0504  -26.4263   22.4757 H         1 ANP1101     0.0000 
     39 H         -23.5789  -22.3384   22.3323 H         1 ANP1101     0.0000 
     40 H         -25.2095  -22.7663   22.9516 H         1 ANP1101     0.0000 
     41 H         -22.2305  -25.8487   19.9452 H         1 ANP1101     0.0000 
     42 H         -27.4237  -30.3769   24.4478 H         1 ANP1101     0.0000 
     43 H         -26.2487  -31.1602   21.8602 H         1 ANP1101     0.0000 
@<TRIPOS>BOND
     1    2    1 ar   
     2    3    1 ar   
     3    4    1 ar   
     4    8    1 1    
     5    6    5 ar   
     6    7    5 ar   
     7    8    5 1    
     8   12    5 1    
     9   10    9 ar   
    10   11    9 ar   
    11   12    9 1    
    12   13    9 1    
    13   14   13 1    
    14   15   14 1    
    15   32   14 1    
    16   33   14 1    
    17   16   15 1    
    18   17   15 1    
    19   34   15 1    
    20   21   16 1    
    21   18   17 1    
    22   19   17 1    
    23   35   17 1    
    24   42   18 1    
    25   20   19 1    
    26   21   19 1    
    27   36   19 1    
    28   43   20 1    
    29   22   21 1    
    30   37   21 1    
    31   23   22 1    
    32   31   22 1    
    33   24   23 2    
    34   38   23 1    
    35   25   24 1    
    36   26   25 ar   
    37   31   25 ar   
    38   27   26 1    
    39   28   26 ar   
    40   39   27 1    
    41   40   27 1    
    42   29   28 ar   
    43   30   29 ar   
    44   41   29 1    
    45   31   30 ar   
@<TRIPOS>SUBSTRUCTURE
     1 ANP1101     1 GROUP   
@<TRIPOS>SET

