#    Name: 3C3C_1_CAVITY_N1_ALL.mol2
#    Modification time : Tue Mar 11 12:49:07 2014

@<TRIPOS>MOLECULE
3C3C_1_CAVITY_N1_ALL.mol2
   63     0     4     0     0
SMALL
NO_CHARGES


@<TRIPOS>ATOM
      1 CZ         22.5763   -1.4464   26.9539 C.ar      2 PHE5        0.0000 
      2 CZ         21.5922   -2.5747   26.8628 C.ar      2 PHE5        0.0000 
      3 CA         19.5328   -2.8091   27.3145 C.3       3 GLY6        0.0000 
      4 CA         14.2477   -0.3615   29.3947 C.3       3 GLY6        0.0000 
      5 CZ         16.3982   -2.1495   28.3090 C.ar      2 PHE5        0.0000 
      6 CA         17.4735   -3.0434   27.7662 C.3       3 GLY6        0.0000 
      7 CZ         20.1629   -1.2593   26.0103 C.ar      2 PHE5        0.0000 
      8 CA         21.2382   -2.1533   25.4675 C.3       3 GLY6        0.0000 
      9 CZ         18.1036   -1.4937   26.4620 C.ar      2 PHE5        0.0000 
     10 CZ         19.1788   -2.3876   25.9192 C.ar      2 PHE5        0.0000 
     11 CA         20.2541   -3.2816   25.3764 C.3       3 GLY6        0.0000 
     12 CZ         14.9689   -0.8340   27.4565 C.ar      2 PHE5        0.0000 
     13 CZ         16.0442   -1.7280   26.9137 C.ar      2 PHE5        0.0000 
     14 DU         17.1194   -2.6220   26.3709 H         4 CUB7        0.0000 
     15 CA         18.1947   -3.5160   25.8281 C.3       3 GLY6        0.0000 
     16 CA         12.9096   -1.0684   27.9082 C.3       3 GLY6        0.0000 
     17 CA         13.9848   -1.9624   27.3654 C.3       3 GLY6        0.0000 
     18 CA         15.0601   -2.8564   26.8226 C.3       3 GLY6        0.0000 
     19 DU         16.1353   -3.7504   26.2798 H         4 CUB7        0.0000 
     20 CZ         17.2105   -4.6444   25.7369 C.ar      2 PHE5        0.0000 
     21 O          14.0759   -3.9847   26.7315 O.2       1 ALA2        0.0000 
     22 N          15.1512   -4.8787   26.1887 N.2       1 ALA2        0.0000 
     23 CZ         18.7337    0.0561   25.1577 C.ar      2 PHE5        0.0000 
     24 DU         19.8089   -0.8378   24.6149 H         4 CUB7        0.0000 
     25 CA         20.8842   -1.7318   24.0721 C.3       3 GLY6        0.0000 
     26 CZ         16.6743   -0.1782   25.6094 C.ar      2 PHE5        0.0000 
     27 CZ         17.7495   -1.0722   25.0666 C.ar      2 PHE5        0.0000 
     28 CA         18.8248   -1.9662   24.5238 C.3       3 GLY6        0.0000 
     29 N          13.5397    0.4814   26.6039 N.2       1 ALA2        0.0000 
     30 N          14.6149   -0.4126   26.0611 N.2       1 ALA2        0.0000 
     31 N          15.6902   -1.3066   25.5183 N.2       1 ALA2        0.0000 
     32 DU         16.7654   -2.2006   24.9755 H         4 CUB7        0.0000 
     33 CA         17.8407   -3.0946   24.4327 C.3       3 GLY6        0.0000 
     34 N          12.5555   -0.6470   26.5128 N.2       1 ALA2        0.0000 
     35 N          13.6308   -1.5410   25.9700 N.2       1 ALA2        0.0000 
     36 N          14.7060   -2.4349   25.4272 N.2       1 ALA2        0.0000 
     37 DU         15.7813   -3.3289   24.8844 H         4 CUB7        0.0000 
     38 CA         16.8565   -4.2229   24.3416 C.3       3 GLY6        0.0000 
     39 O          13.7219   -3.5633   25.3361 O.2       1 ALA2        0.0000 
     40 CA         14.7971   -4.4573   24.7933 C.3       3 GLY6        0.0000 
     41 CZ         15.8724   -5.3513   24.2505 C.ar      2 PHE5        0.0000 
     42 DU         18.3796    0.4776   23.7623 H         4 CUB7        0.0000 
     43 DU         19.4549   -0.4164   23.2195 H         4 CUB7        0.0000 
     44 N          16.3203    0.2432   24.2140 N.2       1 ALA2        0.0000 
     45 N          17.3955   -0.6508   23.6712 N.2       1 ALA2        0.0000 
     46 CA         18.4708   -1.5448   23.1284 C.3       3 GLY6        0.0000 
     47 CA         19.5460   -2.4388   22.5856 C.3       3 GLY6        0.0000 
     48 N          16.4114   -1.7791   23.5801 N.2       1 ALA2        0.0000 
     49 CA         17.4866   -2.6731   23.0373 C.3       3 GLY6        0.0000 
     50 N          14.3520   -2.0135   24.0318 N.2       1 ALA2        0.0000 
     51 N          15.4273   -2.9075   23.4890 N.2       1 ALA2        0.0000 
     52 CA         16.5025   -3.8015   22.9462 C.3       3 GLY6        0.0000 
     53 CA         12.2926   -2.2479   24.4835 C.3       3 GLY6        0.0000 
     54 CA         13.3679   -3.1419   23.9407 C.3       3 GLY6        0.0000 
     55 O          14.4431   -4.0358   23.3979 O.2       1 ALA2        0.0000 
     56 O          19.0098    2.0274   22.4581 O.2       1 ALA2        0.0000 
     57 N          16.9504    1.7930   22.9098 N.2       1 ALA2        0.0000 
     58 O          18.0256    0.8990   22.3670 O.2       1 ALA2        0.0000 
     59 DU         19.1009    0.0050   21.8242 H         4 CUB7        0.0000 
     60 N          17.0415   -0.2293   22.2759 N.2       1 ALA2        0.0000 
     61 N          18.1167   -1.1233   21.7330 N.2       1 ALA2        0.0000 
     62 CA         19.1920   -2.0173   21.1902 C.3       3 GLY6        0.0000 
     63 N          17.1326   -2.2517   21.6419 N.2       1 ALA2        0.0000 
@<TRIPOS>BOND
@<TRIPOS>SUBSTRUCTURE
     1 ALA2       21 GROUP   
     2 PHE5        1 GROUP   
     3 GLY6        3 GROUP   
     4 CUB7       14 GROUP   
@<TRIPOS>SET

