#    Name: 3C3C_1_CAVITY_N1_6.mol2
#    Modification time : Tue Mar 11 12:49:07 2014

@<TRIPOS>MOLECULE
3C3C_1_CAVITY_N1_6.mol2
    9     0     3     0     0
SMALL
NO_CHARGES


@<TRIPOS>ATOM
      1 CA         14.2477   -0.3615   29.3947 C.3       3 GLY6        0.0000 
      2 CZ         16.3982   -2.1495   28.3090 C.ar      2 PHE5        0.0000 
      3 CZ         14.9689   -0.8340   27.4565 C.ar      2 PHE5        0.0000 
      4 CA         12.9096   -1.0684   27.9082 C.3       3 GLY6        0.0000 
      5 CA         13.9848   -1.9624   27.3654 C.3       3 GLY6        0.0000 
      6 N          13.5397    0.4814   26.6039 N.2       1 ALA2        0.0000 
      7 N          14.6149   -0.4126   26.0611 N.2       1 ALA2        0.0000 
      8 N          12.5555   -0.6470   26.5128 N.2       1 ALA2        0.0000 
      9 N          13.6308   -1.5410   25.9700 N.2       1 ALA2        0.0000 
@<TRIPOS>BOND
@<TRIPOS>SUBSTRUCTURE
     1 ALA2        6 GROUP   
     2 PHE5        2 GROUP   
     3 GLY6        1 GROUP   
@<TRIPOS>SET

