#    Name: 3c3c_CDP_1_INTS_M
#    Modification time : Mon Mar 24 20:24:50 2014

@<TRIPOS>MOLECULE
3c3c_CDP_1_INTS_M
   38     0    12     0     0
SMALL
NO_CHARGES


@<TRIPOS>ATOM
      1 NZ          7.4200   -2.3720   31.3855 N.4       3 LYC4        0.0000 
      2 NZ          8.3380   -1.2900   30.1440 N.4      11 LYL4        0.0000 
      3 NZ          6.5020   -3.4540   32.6270 N.4       7 LYP4        0.0000 
      4 NZ          7.2835   -2.3755   32.9870 N.4       3 LYC4        0.0000 
      5 NZ          8.0650   -1.2970   33.3470 N.4      11 LYL4        0.0000 
      6 N           8.8085   -2.0365   34.3720 N.am      2 SEC2        0.0000 
      7 N           8.0650   -1.2970   33.3470 N.am     10 SEL2        0.0000 
      8 N           9.5520   -2.7760   35.3970 N.am      6 SEP2        0.0000 
      9 N           7.2835   -2.3755   32.9870 N.am      2 SEC2        0.0000 
     10 N           6.5020   -3.4540   32.6270 N.am      6 SEP2        0.0000 
     11 N           9.8695   -1.3990   34.7270 N.am      2 SEC2        0.0000 
     12 N          10.1870   -0.0220   34.0570 N.am     10 SEL2        0.0000 
     13 CA         10.4900   -0.2255   35.2805 C.3       4 GLC5        0.0000 
     14 CA         11.3240    0.5900   33.4440 C.3      12 GLL5        0.0000 
     15 CA          9.6560   -1.0410   37.1170 C.3       8 GLP5        0.0000 
     16 CA         11.3770   -2.0965   33.4960 C.3       4 GLC5        0.0000 
     17 CA         12.5710   -0.2810   33.6070 C.3      12 GLL5        0.0000 
     18 CA         10.1830   -3.9120   33.3850 C.3       8 GLP5        0.0000 
     19 O          15.6020    1.5950   32.6500 O.2       1 ALC1        0.0000 
     20 O          14.5240    0.7590   32.6330 O.2       9 ALL1        0.0000 
     21 O          16.6800    2.4310   32.6670 O.2       5 ALP1        0.0000 
     22 O          16.9175    0.4845   34.2200 O.2       1 ALC1        0.0000 
     23 O          15.8840   -0.5210   34.2720 O.2       9 ALL1        0.0000 
     24 O          17.9510    1.4900   34.1680 O.2       5 ALP1        0.0000 
     25 O          16.2820    0.9550   33.4695 O.2       1 ALC1        0.0000 
     26 N          13.3085   -4.9935   36.7325 N.am      2 SEC2        0.0000 
     27 N          14.3320   -4.0200   35.9750 N.am     10 SEL2        0.0000 
     28 N          12.2850   -5.9670   37.4900 N.am      6 SEP2        0.0000 
     29 CA         12.6480   -1.3110   40.7400 C.3       4 GLC5        0.0000 
     30 CA         13.8510   -1.2620   38.8650 C.3      12 GLL5        0.0000 
     31 CA         11.4450   -1.3600   42.6150 C.3       8 GLP5        0.0000 
     32 CA         11.7030   -0.9660   37.3230 C.3       4 GLC5        0.0000 
     33 CA         13.7500   -0.8910   37.5290 C.3      12 GLL5        0.0000 
     34 CA         15.8108   -1.2408   38.1050 C.3       4 GLC5        0.0000 
     35 CA         17.8210   -1.4050   38.0130 C.3       8 GLP5        0.0000 
     36 CA         14.1710   -1.4850   32.9485 C.3       4 GLC5        0.0000 
     37 CA         13.8100   -1.4500   35.0980 C.3      12 GLL5        0.0000 
     38 CA         14.6430   -2.6450   31.5430 C.3       8 GLP5        0.0000 
@<TRIPOS>BOND
@<TRIPOS>SUBSTRUCTURE
     1 ALC1       19 GROUP        1 X    ALC  0     ROOT ALC X 1
     2 SEC2        6 GROUP        1 X    SEC  0     **** SEC X 2
     3 LYC4        1 GROUP        1 X    LYC  0     **** LYC X 4
     4 GLC5       13 GROUP        1 X    GLC  0     **** GLC X 6
     5 ALP1       21 GROUP        1 Y    ALP  0     ROOT ALP Y 8
     6 SEP2        8 GROUP        1 Y    SEP  0     **** SEP Y 9
     7 LYP4        3 GROUP        1 Y    LYP  0     **** LYP Y 11
     8 GLP5       15 GROUP        1 Y    GLP  0     **** GLP Y 13
     9 ALL1       20 GROUP        1 Z    ALL  0     ROOT ALL Z 15
    10 SEL2        7 GROUP        1 Z    SEL  0     **** SEL Z 16
    11 LYL4        2 GROUP        1 Z    LYL  0     **** LYL Z 18
    12 GLL5       14 GROUP        1 Z    GLL  0     **** GLL Z 20
@<TRIPOS>SET

