#    Name: 3c3c_CDP_1_ligand
#    Modification time : Mon Mar 24 20:24:50 2014

@<TRIPOS>MOLECULE
3c3c_CDP_1_ligand
   37    38     1     0     0
SMALL
NO_CHARGES


@<TRIPOS>ATOM
      1 O3B        10.1450    0.4180   29.4950 O.co2     1 CDP419      0.0000 
      2 PB          9.6190   -0.4970   30.7110 P.3       1 CDP419      0.0000 
      3 O1B        10.6640   -1.3990   31.2460 O.co2     1 CDP419      0.0000 
      4 O2B         8.3380   -1.2900   30.1440 O.co2     1 CDP419      0.0000 
      5 O3A         9.0500    0.5250   31.8180 O.3       1 CDP419      0.0000 
      6 PA          8.7580    0.0100   33.3150 P.3       1 CDP419      0.0000 
      7 O1A         8.0650   -1.2970   33.3470 O.co2     1 CDP419      0.0000 
      8 O2A         7.9160    1.1810   34.0280 O.co2     1 CDP419      0.0000 
      9 O5'        10.1870   -0.0220   34.0570 O.3       1 CDP419      0.0000 
     10 C5'        11.3240    0.5900   33.4440 C.3       1 CDP419      0.0000 
     11 C4'        12.5710   -0.2810   33.6070 C.3       1 CDP419      0.0000 
     12 O4'        12.4600   -1.0550   34.8110 O.3       1 CDP419      0.0000 
     13 C3'        13.7890    0.6100   33.8510 C.3       1 CDP419      0.0000 
     14 O3'        14.5240    0.7590   32.6330 O.3       1 CDP419      0.0000 
     15 C2'        14.6260   -0.1790   34.8600 C.3       1 CDP419      0.0000 
     16 O2'        15.8840   -0.5210   34.2720 O.3       1 CDP419      0.0000 
     17 C1'        13.8100   -1.4500   35.0980 C.3       1 CDP419      0.0000 
     18 N1         13.9170   -1.8460   36.5200 N.am      1 CDP419      0.0000 
     19 C2         14.1850   -3.1770   36.8590 C.2       1 CDP419      0.0000 
     20 O2         14.3320   -4.0200   35.9750 O.2       1 CDP419      0.0000 
     21 N3         14.2850   -3.5460   38.2050 N.2       1 CDP419      0.0000 
     22 C4         14.1170   -2.5830   39.2060 C.2       1 CDP419      0.0000 
     23 N4         14.2120   -2.9320   40.4860 N.pl3     1 CDP419      0.0000 
     24 C5         13.8510   -1.2620   38.8650 C.2       1 CDP419      0.0000 
     25 C6         13.7500   -0.8910   37.5290 C.2       1 CDP419      0.0000 
     26 H          11.5443    1.5732   33.8881 H         1 CDP419      0.0000 
     27 H          11.1674    0.7486   32.3657 H         1 CDP419      0.0000 
     28 H          12.7311   -0.8686   32.7632 H         1 CDP419      0.0000 
     29 H          13.4808    1.5064   34.2840 H         1 CDP419      0.0000 
     30 H          14.6942    0.3602   35.7486 H         1 CDP419      0.0000 
     31 H          14.1485   -2.1985   34.4519 H         1 CDP419      0.0000 
     32 H          14.4650   -3.8827   40.6652 H         1 CDP419      0.0000 
     33 H          14.0218   -2.2122   41.1536 H         1 CDP419      0.0000 
     34 H          13.7283   -0.5556   39.6044 H         1 CDP419      0.0000 
     35 H          13.5523    0.0859   37.2777 H         1 CDP419      0.0000 
     36 H          15.2514    1.4107   32.8479 H         1 CDP419      0.0000 
     37 H          16.4411    0.3053   34.3542 H         1 CDP419      0.0000 
@<TRIPOS>BOND
     1    2    1 ar   
     2    3    2 ar   
     3    4    2 ar   
     4    5    2 1    
     5    6    5 1    
     6    7    6 ar   
     7    8    6 ar   
     8    9    6 1    
     9   10    9 1    
    10   11   10 1    
    11   26   10 1    
    12   27   10 1    
    13   12   11 1    
    14   13   11 1    
    15   28   11 1    
    16   17   12 1    
    17   14   13 1    
    18   15   13 1    
    19   29   13 1    
    20   36   14 1    
    21   16   15 1    
    22   17   15 1    
    23   30   15 1    
    24   37   16 1    
    25   18   17 1    
    26   31   17 1    
    27   19   18 am   
    28   25   18 1    
    29   20   19 2    
    30   21   19 1    
    31   22   21 2    
    32   23   22 1    
    33   24   22 1    
    34   32   23 1    
    35   33   23 1    
    36   25   24 2    
    37   34   24 1    
    38   35   25 1    
@<TRIPOS>SUBSTRUCTURE
     1 CDP419      1 GROUP   
@<TRIPOS>SET

