#    Name: 2y9q_ANP_1_INTS_M
#    Modification time : Tue Mar 25 07:58:58 2014

@<TRIPOS>MOLECULE
2y9q_ANP_1_INTS_M
   74     0    12     0     0
SMALL
NO_CHARGES


@<TRIPOS>ATOM
      1 NZ         51.9995   25.7130    5.8855 N.4       3 LYC4        0.0000 
      2 NZ         51.7610   25.9330    7.2740 N.4      11 LYL4        0.0000 
      3 NZ         52.2380   25.4930    4.4970 N.4       7 LYP4        0.0000 
      4 N          51.9995   25.7130    5.8855 N.am      2 SEC2        0.0000 
      5 N          51.7610   25.9330    7.2740 N.am     10 SEL2        0.0000 
      6 N          52.2380   25.4930    4.4970 N.am      6 SEP2        0.0000 
      7 N          52.8825   26.3510    7.6145 N.am      2 SEC2        0.0000 
      8 N          54.0040   26.7690    7.9550 N.am      6 SEP2        0.0000 
      9 N          47.8945   26.7375    7.2850 N.am      2 SEC2        0.0000 
     10 N          49.2180   26.3610    7.1080 N.am     10 SEL2        0.0000 
     11 N          46.5710   27.1140    7.4620 N.am      6 SEP2        0.0000 
     12 NZ         50.9950   28.2660   12.6350 N.4       3 LYC4        0.0000 
     13 NZ         50.1690   27.4530   11.7850 N.4      11 LYL4        0.0000 
     14 NZ         51.8210   29.0790   13.4850 N.4       7 LYP4        0.0000 
     15 N          50.9950   28.2660   12.6350 N.am      2 SEC2        0.0000 
     16 N          50.1690   27.4530   11.7850 N.am     10 SEL2        0.0000 
     17 N          51.8210   29.0790   13.4850 N.am      6 SEP2        0.0000 
     18 N          47.1145   27.2205    9.9835 N.am      2 SEC2        0.0000 
     19 N          48.2790   28.0560    9.9880 N.am     10 SEL2        0.0000 
     20 N          45.9500   26.3850    9.9790 N.am      6 SEP2        0.0000 
     21 N          47.2645   28.2830   10.8980 N.am      2 SEC2        0.0000 
     22 N          46.2500   28.5100   11.8080 N.am      6 SEP2        0.0000 
     23 NZ         52.2550   29.6010   12.2760 N.4       3 LYC4        0.0000 
     24 NZ         52.6890   30.1230   11.0670 N.4      11 LYL4        0.0000 
     25 N          52.2550   29.6010   12.2760 N.am      2 SEC2        0.0000 
     26 N          52.6890   30.1230   11.0670 N.am     10 SEL2        0.0000 
     27 CA         48.8720   30.6550    7.9570 C.3       4 GLC5        0.0000 
     28 CA         50.4340   31.9000    8.4730 C.3      12 GLL5        0.0000 
     29 CA         47.3100   29.4100    7.4410 C.3       8 GLP5        0.0000 
     30 O          53.3550   32.2675    5.4355 O.2       1 ALC1        0.0000 
     31 O          52.1220   32.5190    5.8900 O.2       9 ALL1        0.0000 
     32 O          54.5880   32.0160    4.9810 O.2       5 ALP1        0.0000 
     33 CA         53.8095   34.9520    5.4730 C.3       4 GLC5        0.0000 
     34 CA         52.3980   34.5630    7.1030 C.3      12 GLL5        0.0000 
     35 CA         55.2210   35.3410    3.8430 C.3       8 GLP5        0.0000 
     36 O          52.3425   35.0320    4.8495 O.2       1 ALC1        0.0000 
     37 O          51.8200   35.2400    6.0110 O.2       9 ALL1        0.0000 
     38 O          52.8650   34.8240    3.6880 O.2       5 ALP1        0.0000 
     39 CA         50.6125   36.9740    8.1145 C.3       4 GLC5        0.0000 
     40 CA         51.7730   35.1070    8.3120 C.3      12 GLL5        0.0000 
     41 CA         49.4520   38.8410    7.9170 C.3       8 GLP5        0.0000 
     42 CA         50.7655   35.8255   10.0950 C.3       4 GLC5        0.0000 
     43 CA         49.7580   36.5440   11.8780 C.3       8 GLP5        0.0000 
     44 O          55.4720   35.6080   13.5970 O.2       1 ALC1        0.0000 
     45 O          55.4920   36.8670   12.7650 O.2       9 ALL1        0.0000 
     46 O          55.4520   34.3490   14.4290 O.2       5 ALP1        0.0000 
     47 O          56.2025   38.0025   13.3925 O.2       1 ALC1        0.0000 
     48 O          56.9130   39.1380   14.0200 O.2       5 ALP1        0.0000 
     49 N          55.6815   39.5625   11.0185 N.am      2 SEC2        0.0000 
     50 N          54.7640   38.3180   11.0150 N.am     10 SEL2        0.0000 
     51 N          56.5990   40.8070   11.0220 N.am      6 SEP2        0.0000 
     52 CA         52.1580   39.3975   10.2305 C.3       4 GLC5        0.0000 
     53 CA         54.0730   38.5450    9.9000 C.3      12 GLL5        0.0000 
     54 CA         50.2430   40.2500   10.5610 C.3       8 GLP5        0.0000 
     55 CA         53.5375   38.6995   12.0370 C.3       4 GLC5        0.0000 
     56 CA         53.0020   38.8540   14.1740 C.3       8 GLP5        0.0000 
     57 CA         53.5630   40.3305   10.9000 C.3       4 GLC5        0.0000 
     58 CA         53.0530   42.1160   11.9000 C.3       8 GLP5        0.0000 
     59 CA         55.9420   39.0485    9.6110 C.3       4 GLC5        0.0000 
     60 CA         57.8110   39.5520    9.3220 C.3       8 GLP5        0.0000 
     61 CA         55.1485   36.9265    8.8735 C.3       4 GLC5        0.0000 
     62 CA         56.2240   35.3080    7.8470 C.3       8 GLP5        0.0000 
     63 CA         54.7595   35.8405    8.8490 C.3       4 GLC5        0.0000 
     64 CA         53.2950   36.3730    9.8510 C.3      12 GLL5        0.0000 
     65 CA         49.8072   33.3457    9.8383 C.3       4 GLC5        0.0000 
     66 CA         50.7110   33.1450    7.7460 C.3      12 GLL5        0.0000 
     67 CA         49.0420   34.1690   11.5670 C.3       8 GLP5        0.0000 
     68 CA         54.1547   35.0715    7.7772 C.3       4 GLC5        0.0000 
     69 CA         51.7010   36.3860   11.1572 C.3       4 GLC5        0.0000 
     70 CA         53.6863   37.7245   12.7402 C.3       4 GLC5        0.0000 
     71 CA         53.9930   36.0830   11.0220 C.3      12 GLL5        0.0000 
     72 CA         55.9322   35.9395   10.6642 C.3       4 GLC5        0.0000 
     73 CA         54.7480   37.1070   11.5910 C.3      12 GLL5        0.0000 
     74 CA         57.4940   35.2840   10.0220 C.3       8 GLP5        0.0000 
@<TRIPOS>BOND
@<TRIPOS>SUBSTRUCTURE
     1 ALC1       30 GROUP        1 X    ALC  0     ROOT ALC X 1
     2 SEC2        4 GROUP        1 X    SEC  0     **** SEC X 2
     3 LYC4        1 GROUP        1 X    LYC  0     **** LYC X 4
     4 GLC5       27 GROUP        1 X    GLC  0     **** GLC X 6
     5 ALP1       32 GROUP        1 Y    ALP  0     ROOT ALP Y 8
     6 SEP2        6 GROUP        1 Y    SEP  0     **** SEP Y 9
     7 LYP4        3 GROUP        1 Y    LYP  0     **** LYP Y 11
     8 GLP5       29 GROUP        1 Y    GLP  0     **** GLP Y 13
     9 ALL1       31 GROUP        1 Z    ALL  0     ROOT ALL Z 15
    10 SEL2        5 GROUP        1 Z    SEL  0     **** SEL Z 16
    11 LYL4        2 GROUP        1 Z    LYL  0     **** LYL Z 18
    12 GLL5       28 GROUP        1 Z    GLL  0     **** GLL Z 20
@<TRIPOS>SET

