#    Name: 2y9q_ANP_1_ligand
#    Modification time : Tue Mar 25 07:58:58 2014

@<TRIPOS>MOLECULE
2y9q_ANP_1_ligand
   43    45     1     0     0
SMALL
NO_CHARGES


@<TRIPOS>ATOM
      1 PG         50.5400   26.8750    7.6630 P.3       1 ANP1359     0.0000 
      2 O1G        51.7610   25.9330    7.2740 O.co2     1 ANP1359     0.0000 
      3 O2G        50.8200   28.3150    7.0830 O.co2     1 ANP1359     0.0000 
      4 O3G        49.2180   26.3610    7.1080 O.co2     1 ANP1359     0.0000 
      5 PB         49.7850   27.9390   10.3450 P.3       1 ANP1359     0.0000 
      6 O1B        50.1690   27.4530   11.7850 O.co2     1 ANP1359     0.0000 
      7 O2B        48.2790   28.0560    9.9880 O.co2     1 ANP1359     0.0000 
      8 N3B        50.7000   26.8610    9.3250 N.4       1 ANP1359     0.0000 
      9 PA         51.7940   30.1050    9.8660 P.3       1 ANP1359     0.0000 
     10 O1A        52.6890   30.1230   11.0670 O.co2     1 ANP1359     0.0000 
     11 O2A        52.4260   29.4650    8.6290 O.co2     1 ANP1359     0.0000 
     12 O3A        50.4020   29.4230   10.2230 O.3       1 ANP1359     0.0000 
     13 O5'        51.3550   31.5850    9.5290 O.3       1 ANP1359     0.0000 
     14 C5'        50.4340   31.9000    8.4730 C.3       1 ANP1359     0.0000 
     15 C4'        50.7110   33.1450    7.7460 C.3       1 ANP1359     0.0000 
     16 O4'        50.7210   34.2230    8.6550 O.3       1 ANP1359     0.0000 
     17 C3'        52.0710   33.1600    7.1460 C.3       1 ANP1359     0.0000 
     18 O3'        52.1220   32.5190    5.8900 O.3       1 ANP1359     0.0000 
     19 C2'        52.3980   34.5630    7.1030 C.3       1 ANP1359     0.0000 
     20 O2'        51.8200   35.2400    6.0110 O.3       1 ANP1359     0.0000 
     21 C1'        51.7730   35.1070    8.3120 C.3       1 ANP1359     0.0000 
     22 N9         52.6570   35.2310    9.4940 N.pl3     1 ANP1359     0.0000 
     23 C8         52.9280   34.2820   10.4140 C.2       1 ANP1359     0.0000 
     24 N7         53.7510   34.7850   11.3450 N.2       1 ANP1359     0.0000 
     25 C5         53.9930   36.0830   11.0220 C.ar      1 ANP1359     0.0000 
     26 C6         54.7480   37.1070   11.5910 C.ar      1 ANP1359     0.0000 
     27 N6         55.4920   36.8670   12.7650 N.pl3     1 ANP1359     0.0000 
     28 N1         54.7640   38.3180   11.0150 N.ar      1 ANP1359     0.0000 
     29 C2         54.0730   38.5450    9.9000 C.ar      1 ANP1359     0.0000 
     30 N3         53.3360   37.5920    9.2980 N.ar      1 ANP1359     0.0000 
     31 C4         53.2950   36.3730    9.8510 C.ar      1 ANP1359     0.0000 
     32 H          49.3864   31.9481    8.8811 H         1 ANP1359     0.0000 
     33 H          50.3966   31.0530    7.7330 H         1 ANP1359     0.0000 
     34 H          49.9884   33.3074    6.9754 H         1 ANP1359     0.0000 
     35 H          52.7365   32.6779    7.8739 H         1 ANP1359     0.0000 
     36 H          53.4486   34.7109    7.1725 H         1 ANP1359     0.0000 
     37 H          51.3448   36.0864    8.0849 H         1 ANP1359     0.0000 
     38 H          52.5774   33.3734   10.3995 H         1 ANP1359     0.0000 
     39 H          56.0153   37.6415   13.1204 H         1 ANP1359     0.0000 
     40 H          55.4329   35.9427   13.1421 H         1 ANP1359     0.0000 
     41 H          54.0997   39.5133    9.4630 H         1 ANP1359     0.0000 
     42 H          52.9811   32.8237    5.4787 H         1 ANP1359     0.0000 
     43 H          51.9893   34.6497    5.2217 H         1 ANP1359     0.0000 
@<TRIPOS>BOND
     1    2    1 ar   
     2    3    1 ar   
     3    4    1 ar   
     4    8    1 1    
     5    6    5 ar   
     6    7    5 ar   
     7    8    5 1    
     8   12    5 1    
     9   10    9 ar   
    10   11    9 ar   
    11   12    9 1    
    12   13    9 1    
    13   14   13 1    
    14   15   14 1    
    15   32   14 1    
    16   33   14 1    
    17   16   15 1    
    18   17   15 1    
    19   34   15 1    
    20   21   16 1    
    21   18   17 1    
    22   19   17 1    
    23   35   17 1    
    24   42   18 1    
    25   20   19 1    
    26   21   19 1    
    27   36   19 1    
    28   43   20 1    
    29   22   21 1    
    30   37   21 1    
    31   23   22 1    
    32   31   22 1    
    33   24   23 2    
    34   38   23 1    
    35   25   24 1    
    36   26   25 ar   
    37   31   25 ar   
    38   27   26 1    
    39   28   26 ar   
    40   39   27 1    
    41   40   27 1    
    42   29   28 ar   
    43   30   29 ar   
    44   41   29 1    
    45   31   30 ar   
@<TRIPOS>SUBSTRUCTURE
     1 ANP1359     1 GROUP   
@<TRIPOS>SET

