#    Name: 2i0d_MUT_1_INTS_M
#    Modification time : Tue Mar 25 17:15:55 2014

@<TRIPOS>MOLECULE
2i0d_MUT_1_INTS_M
   89     0     9     0     0
SMALL
NO_CHARGES


@<TRIPOS>ATOM
      1 CA         15.9090   33.4130   13.9555 C.3       3 GLC5        0.0000 
      2 CA         17.0350   33.3960   15.7810 C.3       9 GLL5        0.0000 
      3 CA         14.7830   33.4300   12.1300 C.3       6 GLP5        0.0000 
      4 CA         15.3670   36.9850   15.8315 C.3       3 GLC5        0.0000 
      5 CA         16.5620   35.5430   16.8590 C.3       9 GLL5        0.0000 
      6 CA         14.1720   38.4270   14.8040 C.3       6 GLP5        0.0000 
      7 CA         16.2950   33.2270   18.8885 C.3       3 GLC5        0.0000 
      8 CA         15.5670   34.9440   17.6510 C.3       9 GLL5        0.0000 
      9 CA         17.0230   31.5100   20.1260 C.3       6 GLP5        0.0000 
     10 CA         14.3045   35.5695   15.9945 C.3       3 GLC5        0.0000 
     11 CA         13.0420   36.1950   14.3380 C.3       6 GLP5        0.0000 
     12 N          14.3140   34.8785   19.9955 N.am      2 SEC2        0.0000 
     13 N          14.8560   35.6510   18.5860 N.am      8 SEL2        0.0000 
     14 N          13.7720   34.1060   21.4050 N.am      5 SEP2        0.0000 
     15 CA         15.5810   36.4090   20.6390 C.3       3 GLC5        0.0000 
     16 CA         15.0380   37.0550   18.7950 C.3       9 GLL5        0.0000 
     17 CA         16.1240   35.7630   22.4830 C.3       6 GLP5        0.0000 
     18 CA         13.4520   36.2315   19.6845 C.3       3 GLC5        0.0000 
     19 CA         11.8660   35.4080   20.5740 C.3       6 GLP5        0.0000 
     20 CA         14.1255   37.9650   17.3575 C.3       3 GLC5        0.0000 
     21 CA         13.2130   38.8750   15.9200 C.3       6 GLP5        0.0000 
     22 CA         15.1395   31.1730   15.3830 C.3       3 GLC5        0.0000 
     23 CA         16.0550   32.8130   16.5880 C.3       9 GLL5        0.0000 
     24 CA         14.2240   29.5330   14.1780 C.3       6 GLP5        0.0000 
     25 CA         23.0920   32.4950   12.9995 C.3       3 GLC5        0.0000 
     26 CA         22.0630   32.3930   14.9120 C.3       9 GLL5        0.0000 
     27 CA         24.1210   32.5970   11.0870 C.3       6 GLP5        0.0000 
     28 CA         22.7450   32.8010   18.9985 C.3       3 GLC5        0.0000 
     29 CA         22.2990   33.3860   17.1770 C.3       9 GLL5        0.0000 
     30 CA         23.1910   32.2160   20.8200 C.3       6 GLP5        0.0000 
     31 CA         23.8075   34.1670   17.6730 C.3       3 GLC5        0.0000 
     32 CA         25.3160   34.9480   18.1690 C.3       6 GLP5        0.0000 
     33 CA         17.4380   30.6115   17.8025 C.3       3 GLC5        0.0000 
     34 CA         18.9360   30.5520   16.1620 C.3       9 GLL5        0.0000 
     35 CA         15.9400   30.6710   19.4430 C.3       6 GLP5        0.0000 
     36 N          19.2140   27.8435   17.6810 N.am      2 SEC2        0.0000 
     37 N          19.7600   28.2940   16.4230 N.am      8 SEL2        0.0000 
     38 N          18.6680   27.3930   18.9390 N.am      5 SEP2        0.0000 
     39 O          20.6230   27.9850   17.2920 O.2       1 ALC1        0.0000 
     40 O          19.7600   28.2940   16.4230 O.2       7 ALL1        0.0000 
     41 O          21.4860   27.6760   18.1610 O.2       4 ALP1        0.0000 
     42 O          21.3035   28.7455   16.8780 O.2       1 ALC1        0.0000 
     43 O          22.8470   29.1970   17.3330 O.2       4 ALP1        0.0000 
     44 CA         17.0715   25.5590   13.2780 C.3       3 GLC5        0.0000 
     45 CA         17.9540   26.7850   12.0510 C.3       9 GLL5        0.0000 
     46 CA         16.1890   24.3330   14.5050 C.3       6 GLP5        0.0000 
     47 CA         18.7260   29.8675    9.2825 C.3       3 GLC5        0.0000 
     48 CA         17.0940   28.7610   10.3340 C.3       9 GLL5        0.0000 
     49 CA         20.3580   30.9740    8.2310 C.3       6 GLP5        0.0000 
     50 CA         17.1080   30.7235    9.7225 C.3       3 GLC5        0.0000 
     51 CA         17.1220   32.6860    9.1110 C.3       6 GLP5        0.0000 
     52 CA         17.0380   31.0790   11.1140 C.3       3 GLC5        0.0000 
     53 CA         17.3350   29.0660   11.6750 C.3       9 GLL5        0.0000 
     54 CA         16.7410   33.0920   10.5530 C.3       6 GLP5        0.0000 
     55 O          20.1605   26.8650   13.9570 O.2       1 ALC1        0.0000 
     56 O          20.3400   28.3000   13.3950 O.2       7 ALL1        0.0000 
     57 O          19.9810   25.4300   14.5190 O.2       4 ALP1        0.0000 
     58 CA         22.2855   26.5535   13.2200 C.3       3 GLC5        0.0000 
     59 CA         21.8480   27.7840   11.5280 C.3       9 GLL5        0.0000 
     60 CA         22.7230   25.3230   14.9120 C.3       6 GLP5        0.0000 
     61 CA         23.2185   29.4685   11.3590 C.3       3 GLC5        0.0000 
     62 CA         24.5890   31.1530   11.1900 C.3       6 GLP5        0.0000 
     63 N          22.4565   23.9460   12.3025 N.am      2 SEC2        0.0000 
     64 N          21.5270   24.3660   11.2130 N.am      8 SEL2        0.0000 
     65 N          23.3860   23.5260   13.3920 N.am      5 SEP2        0.0000 
     66 CA         20.7820   29.3310    9.1760 C.3       3 GLC5        0.0000 
     67 CA         21.2060   27.6880   10.1210 C.3       9 GLL5        0.0000 
     68 CA         19.4765   27.0885    3.1965 C.3       3 GLC5        0.0000 
     69 CA         18.2950   25.9900    4.2650 C.3       9 GLL5        0.0000 
     70 CA         20.6580   28.1870    2.1280 C.3       6 GLP5        0.0000 
     71 CA         15.8137   31.9335   18.2453 C.3       3 GLC5        0.0000 
     72 CA         15.3200   33.5790   17.5070 C.3       9 GLL5        0.0000 
     73 CA         13.8276   33.3086   16.5072 C.3       3 GLC5        0.0000 
     74 CA         11.9060   33.0800   15.9310 C.3       6 GLP5        0.0000 
     75 CA         23.8624   32.1178   16.8664 C.3       3 GLC5        0.0000 
     76 CA         25.6910   31.3360   17.3360 C.3       6 GLP5        0.0000 
     77 CA         16.0415   26.9800   11.9228 C.3       3 GLC5        0.0000 
     78 CA         17.7680   28.0790   12.5480 C.3       9 GLL5        0.0000 
     79 CA         14.2220   26.5280   11.5460 C.3       6 GLP5        0.0000 
     80 CA         15.8605   26.7532   10.9142 C.3       3 GLC5        0.0000 
     81 CA         17.7220   26.4830   10.7180 C.3       9 GLL5        0.0000 
     82 CA         15.9130   28.2737    8.7847 C.3       3 GLC5        0.0000 
     83 CA         17.2760   27.4740    9.8470 C.3       9 GLL5        0.0000 
     84 CA         14.6410   28.4300    7.4790 C.3       6 GLP5        0.0000 
     85 CA         15.7183   27.7207   11.2752 C.3       3 GLC5        0.0000 
     86 CA         15.9238   29.0948   13.3271 C.3       3 GLC5        0.0000 
     87 CA         20.9052   27.6823    6.2260 C.3       3 GLC5        0.0000 
     88 CA         19.9680   26.3580    7.7500 C.3       9 GLL5        0.0000 
     89 CA         22.0280   29.2860    5.3130 C.3       6 GLP5        0.0000 
@<TRIPOS>BOND
@<TRIPOS>SUBSTRUCTURE
     1 ALC1       39 GROUP        1 X    ALC  0     ROOT ALC X 1
     2 SEC2       12 GROUP        1 X    SEC  0     **** SEC X 2
     3 GLC5        1 GROUP        1 X    GLC  0     **** GLC X 6
     4 ALP1       41 GROUP        1 Y    ALP  0     ROOT ALP Y 8
     5 SEP2       14 GROUP        1 Y    SEP  0     **** SEP Y 9
     6 GLP5        3 GROUP        1 Y    GLP  0     **** GLP Y 13
     7 ALL1       40 GROUP        1 Z    ALL  0     ROOT ALL Z 15
     8 SEL2       13 GROUP        1 Z    SEL  0     **** SEL Z 16
     9 GLL5        2 GROUP        1 Z    GLL  0     **** GLL Z 20
@<TRIPOS>SET

