#    Name: 2i0d_MUT_1_ligand
#    Modification time : Tue Mar 25 17:15:55 2014

@<TRIPOS>MOLECULE
2i0d_MUT_1_ligand
   84    87     1     0     0
SMALL
NO_CHARGES


@<TRIPOS>ATOM
      1 O9         18.4710   33.3790   13.7330 O.2       1 MUT200      0.0000 
      2 S8         17.9420   32.5070   14.7630 S.o2      1 MUT200      0.0000 
      3 O10        17.1760   31.4470   14.1620 O.2       1 MUT200      0.0000 
      4 C5         17.0350   33.3960   15.7810 C.ar      1 MUT200      0.0000 
      5 C4         17.2940   34.7620   15.9630 C.ar      1 MUT200      0.0000 
      6 C3         16.5620   35.5430   16.8590 C.ar      1 MUT200      0.0000 
      7 C2         15.5670   34.9440   17.6510 C.ar      1 MUT200      0.0000 
      8 O19        14.8560   35.6510   18.5860 O.3       1 MUT200      0.0000 
      9 C18        15.0380   37.0550   18.7950 C.3       1 MUT200      0.0000 
     10 C7         15.3200   33.5790   17.5070 C.ar      1 MUT200      0.0000 
     11 C6         16.0550   32.8130   16.5880 C.ar      1 MUT200      0.0000 
     12 N11        19.2180   31.8380   15.4990 N.pl3     1 MUT200      0.0000 
     13 C12        19.9880   32.7990   16.3320 C.3       1 MUT200      0.0000 
     14 C13        21.4740   32.4330   16.3210 C.3       1 MUT200      0.0000 
     15 C14        22.0630   32.3930   14.9120 C.3       1 MUT200      0.0000 
     16 C15        22.2990   33.3860   17.1770 C.3       1 MUT200      0.0000 
     17 C16        18.9360   30.5520   16.1620 C.3       1 MUT200      0.0000 
     18 C17        19.8300   29.4520   15.5710 C.3       1 MUT200      0.0000 
     19 O18        19.7600   28.2940   16.4230 O.3       1 MUT200      0.0000 
     20 C19        19.3950   29.1670   14.1200 C.3       1 MUT200      0.0000 
     21 C32        18.0560   28.4150   14.0070 C.3       1 MUT200      0.0000 
     22 C38        17.7680   28.0790   12.5480 C.ar      1 MUT200      0.0000 
     23 C33        17.9540   26.7850   12.0510 C.ar      1 MUT200      0.0000 
     24 C34        17.7220   26.4830   10.7180 C.ar      1 MUT200      0.0000 
     25 C35        17.2760   27.4740    9.8470 C.ar      1 MUT200      0.0000 
     26 C36        17.0940   28.7610   10.3340 C.ar      1 MUT200      0.0000 
     27 C37        17.3350   29.0660   11.6750 C.ar      1 MUT200      0.0000 
     28 N20        20.3400   28.3000   13.3950 N.am      1 MUT200      0.0000 
     29 C21        21.0390   28.7550   12.3510 C.2       1 MUT200      0.0000 
     30 O22        21.0420   29.9310   12.0260 O.2       1 MUT200      0.0000 
     31 C29        21.8480   27.7840   11.5280 C.3       1 MUT200      0.0000 
     32 O28        21.8360   26.4690   12.0840 O.3       1 MUT200      0.0000 
     33 C26        21.4580   25.5680   11.0160 C.2       1 MUT200      0.0000 
     34 O27        21.5270   24.3660   11.2130 O.2       1 MUT200      0.0000 
     35 C25        21.2060   27.6880   10.1210 C.3       1 MUT200      0.0000 
     36 N24        21.1320   26.2450    9.9100 N.am      1 MUT200      0.0000 
     37 C43        20.7790   25.6650    8.6590 C.ar      1 MUT200      0.0000 
     38 C44        21.2180   24.3930    8.2840 C.ar      1 MUT200      0.0000 
     39 C45        20.8490   23.8240    7.0610 C.ar      1 MUT200      0.0000 
     40 C40        20.0400   24.5230    6.1780 C.ar      1 MUT200      0.0000 
     41 C42        19.9680   26.3580    7.7500 C.ar      1 MUT200      0.0000 
     42 C41        19.5970   25.7990    6.5280 C.ar      1 MUT200      0.0000 
     43 C46        18.6970   26.5940    5.5760 C.2       1 MUT200      0.0000 
     44 O45        18.3090   27.7060    5.9080 O.2       1 MUT200      0.0000 
     45 C47        18.2950   25.9900    4.2650 C.3       1 MUT200      0.0000 
     46 H          18.0567   35.2052   15.4114 H         1 MUT200      0.0000 
     47 H          16.7451   36.5453   16.9420 H         1 MUT200      0.0000 
     48 H          14.5932   33.1251   18.0776 H         1 MUT200      0.0000 
     49 H          15.8653   31.8003   16.5096 H         1 MUT200      0.0000 
     50 H          19.6322   32.7779   17.3623 H         1 MUT200      0.0000 
     51 H          19.8763   33.8117   15.9440 H         1 MUT200      0.0000 
     52 H          21.5824   31.4281   16.7525 H         1 MUT200      0.0000 
     53 H          17.8951   30.2620   16.0166 H         1 MUT200      0.0000 
     54 H          19.1350   30.6167   17.2320 H         1 MUT200      0.0000 
     55 H          20.8425   29.8516   15.5422 H         1 MUT200      0.0000 
     56 H          19.2862   30.0978   13.5809 H         1 MUT200      0.0000 
     57 H          17.2640   29.0434   14.3989 H         1 MUT200      0.0000 
     58 H          18.1148   27.5003   14.5863 H         1 MUT200      0.0000 
     59 H          18.2725   26.0389   12.6978 H         1 MUT200      0.0000 
     60 H          17.8784   25.5280   10.3695 H         1 MUT200      0.0000 
     61 H          17.0870   27.2557    8.8685 H         1 MUT200      0.0000 
     62 H          16.7741   29.5103    9.6946 H         1 MUT200      0.0000 
     63 H          17.1897   30.0274   12.0127 H         1 MUT200      0.0000 
     64 H          20.4219   27.3303   13.7464 H         1 MUT200      0.0000 
     65 H          22.8396   28.1581   11.3976 H         1 MUT200      0.0000 
     66 H          21.8553   28.1577    9.4262 H         1 MUT200      0.0000 
     67 H          20.2440   28.1326   10.1631 H         1 MUT200      0.0000 
     68 H          21.8311   23.8583    8.9262 H         1 MUT200      0.0000 
     69 H          21.1829   22.8797    6.8195 H         1 MUT200      0.0000 
     70 H          19.7697   24.1126    5.2820 H         1 MUT200      0.0000 
     71 H          19.6373   27.3101    7.9955 H         1 MUT200      0.0000 
     72 H          15.9750   37.2713   19.0692 H         1 MUT200      0.0000 
     73 H          14.8460   37.5817   17.9669 H         1 MUT200      0.0000 
     74 H          14.4347   37.4051   19.5115 H         1 MUT200      0.0000 
     75 H          23.0343   32.1552   14.9221 H         1 MUT200      0.0000 
     76 H          21.6020   31.7181   14.3358 H         1 MUT200      0.0000 
     77 H          21.9823   33.2765   14.4505 H         1 MUT200      0.0000 
     78 H          23.2693   33.1443   17.1720 H         1 MUT200      0.0000 
     79 H          22.2304   34.3297   16.8535 H         1 MUT200      0.0000 
     80 H          22.0006   33.3809   18.1314 H         1 MUT200      0.0000 
     81 H          19.0886   25.7790    3.6944 H         1 MUT200      0.0000 
     82 H          17.7880   25.1370    4.3890 H         1 MUT200      0.0000 
     83 H          17.7094   26.6049    3.7368 H         1 MUT200      0.0000 
     84 H          20.6659   28.2252   16.8409 H         1 MUT200      0.0000 
@<TRIPOS>BOND
     1    2    1 2    
     2    3    2 2    
     3    4    2 1    
     4   12    2 1    
     5    5    4 ar   
     6   11    4 ar   
     7    6    5 ar   
     8   46    5 1    
     9    7    6 ar   
    10   47    6 1    
    11    8    7 1    
    12   10    7 ar   
    13    9    8 1    
    14   72    9 1    
    15   73    9 1    
    16   74    9 1    
    17   11   10 ar   
    18   48   10 1    
    19   49   11 1    
    20   13   12 1    
    21   17   12 1    
    22   14   13 1    
    23   50   13 1    
    24   51   13 1    
    25   15   14 1    
    26   16   14 1    
    27   52   14 1    
    28   75   15 1    
    29   76   15 1    
    30   77   15 1    
    31   78   16 1    
    32   79   16 1    
    33   80   16 1    
    34   18   17 1    
    35   53   17 1    
    36   54   17 1    
    37   19   18 1    
    38   20   18 1    
    39   55   18 1    
    40   84   19 1    
    41   21   20 1    
    42   28   20 1    
    43   56   20 1    
    44   22   21 1    
    45   57   21 1    
    46   58   21 1    
    47   23   22 ar   
    48   27   22 ar   
    49   24   23 ar   
    50   59   23 1    
    51   25   24 ar   
    52   60   24 1    
    53   26   25 ar   
    54   61   25 1    
    55   27   26 ar   
    56   62   26 1    
    57   63   27 1    
    58   29   28 am   
    59   64   28 1    
    60   30   29 2    
    61   31   29 1    
    62   32   31 1    
    63   35   31 1    
    64   65   31 1    
    65   33   32 1    
    66   34   33 2    
    67   36   33 am   
    68   36   35 1    
    69   66   35 1    
    70   67   35 1    
    71   37   36 1    
    72   38   37 ar   
    73   41   37 ar   
    74   39   38 ar   
    75   68   38 1    
    76   40   39 ar   
    77   69   39 1    
    78   42   40 ar   
    79   70   40 1    
    80   42   41 ar   
    81   71   41 1    
    82   43   42 1    
    83   44   43 2    
    84   45   43 1    
    85   81   45 1    
    86   82   45 1    
    87   83   45 1    
@<TRIPOS>SUBSTRUCTURE
     1 MUT200      1 GROUP   
@<TRIPOS>SET

