#    Name: 3zrm_ZRM_2_INTS_M
#    Modification time : Tue Mar 25 03:52:18 2014

@<TRIPOS>MOLECULE
3zrm_ZRM_2_INTS_M
   40     0     6     0     0
SMALL
NO_CHARGES


@<TRIPOS>ATOM
      1 CA        102.8565   60.8200   46.0370 C.3       2 GLC5        0.0000 
      2 CA        104.2750   59.3230   46.1440 C.3       6 GLL5        0.0000 
      3 CA        101.4380   62.3170   45.9300 C.3       4 GLP5        0.0000 
      4 CA        106.9765   59.3475   48.9390 C.3       2 GLC5        0.0000 
      5 CA        106.3730   58.6520   47.0180 C.3       6 GLL5        0.0000 
      6 CA        107.5800   60.0430   50.8600 C.3       4 GLP5        0.0000 
      7 CA        103.5590   61.9790   45.3805 C.3       2 GLC5        0.0000 
      8 CA        105.6800   61.6410   44.8310 C.3       6 GLL5        0.0000 
      9 CA        105.6640   60.5385   43.0855 C.3       2 GLC5        0.0000 
     10 CA        105.6480   59.4360   41.3400 C.3       4 GLP5        0.0000 
     11 CA        102.0670   58.1310   45.3620 C.3       2 GLC5        0.0000 
     12 CA        103.7330   58.1780   46.6990 C.3       6 GLL5        0.0000 
     13 CA        100.4010   58.0840   44.0250 C.3       4 GLP5        0.0000 
     14 CA        102.9395   56.9500   48.1425 C.3       2 GLC5        0.0000 
     15 CA        102.1460   55.7220   49.5860 C.3       4 GLP5        0.0000 
     16 CA        104.9345   55.4680   47.4545 C.3       2 GLC5        0.0000 
     17 CA        105.7270   57.5490   47.5390 C.3       6 GLL5        0.0000 
     18 CA        104.1420   53.3870   47.3700 C.3       4 GLP5        0.0000 
     19 N         104.0210   55.8995   47.7475 N.am      1 SEC2        0.0000 
     20 N         104.4240   57.2690   47.4010 N.am      5 SEL2        0.0000 
     21 N         103.6180   54.5300   48.0940 N.am      3 SEP2        0.0000 
     22 N         104.8775   65.3915   42.7060 N.am      1 SEC2        0.0000 
     23 N         105.2580   63.9140   42.9890 N.am      5 SEL2        0.0000 
     24 N         104.4970   66.8690   42.4230 N.am      3 SEP2        0.0000 
     25 CA        108.9820   64.2182   46.6120 C.3       2 GLC5        0.0000 
     26 CA        110.9060   64.1220   45.8700 C.3       6 GLL5        0.0000 
     27 CA        107.3510   64.8140   47.7280 C.3       4 GLP5        0.0000 
     28 CA        107.2892   63.6735   46.1912 C.3       2 GLC5        0.0000 
     29 CA        106.5990   62.6230   44.3910 C.3       6 GLL5        0.0000 
     30 CA        112.2088   63.7731   47.9507 C.3       2 GLC5        0.0000 
     31 CA        112.1800   64.0920   49.8810 C.3       4 GLP5        0.0000 
     32 CA        106.6572   61.9965   47.4660 C.3       2 GLC5        0.0000 
     33 CA        107.9010   61.0840   45.9630 C.3       6 GLL5        0.0000 
     34 CA        106.2440   63.0900   49.1030 C.3       4 GLP5        0.0000 
     35 CA        108.0910   64.2862   45.9785 C.3       2 GLC5        0.0000 
     36 CA        108.9570   63.2530   44.6490 C.3       6 GLL5        0.0000 
     37 CA        104.3553   59.4418   48.2272 C.3       2 GLC5        0.0000 
     38 CA        103.2780   60.2540   49.6340 C.3       4 GLP5        0.0000 
     39 CA        104.9748   57.6558   45.2912 C.3       2 GLC5        0.0000 
     40 CA        104.5170   56.6820   43.7620 C.3       4 GLP5        0.0000 
@<TRIPOS>BOND
@<TRIPOS>SUBSTRUCTURE
     1 SEC2       19 GROUP        1 X    SEC  0     ROOT SEC X 2
     2 GLC5        1 GROUP        1 X    GLC  0     **** GLC X 6
     3 SEP2       21 GROUP        1 Y    SEP  0     ROOT SEP Y 9
     4 GLP5        3 GROUP        1 Y    GLP  0     **** GLP Y 13
     5 SEL2       20 GROUP        1 Z    SEL  0     ROOT SEL Z 16
     6 GLL5        2 GROUP        1 Z    GLL  0     **** GLL Z 20
@<TRIPOS>SET

