#    Name: 3zrm_ZRM_2_ligand
#    Modification time : Tue Mar 25 03:52:18 2014

@<TRIPOS>MOLECULE
3zrm_ZRM_2_ligand
   35    38     1     0     0
SMALL
NO_CHARGES


@<TRIPOS>ATOM
      1 C4        110.9060   64.1220   45.8700 C.ar      1 ZRM1389     0.0000 
      2 C6        111.0390   61.9950   44.7920 C.ar      1 ZRM1389     0.0000 
      3 C3        112.2120   63.9910   46.2920 C.ar      1 ZRM1389     0.0000 
      4 C7        112.3430   61.8480   45.2130 C.ar      1 ZRM1389     0.0000 
      5 C19       104.2750   59.3230   46.1440 C.ar      1 ZRM1389     0.0000 
      6 C23       106.3730   58.6520   47.0180 C.ar      1 ZRM1389     0.0000 
      7 C14       105.6800   61.6410   44.8310 C.2       1 ZRM1389     0.0000 
      8 C20       103.7330   58.1780   46.6990 C.ar      1 ZRM1389     0.0000 
      9 C22       105.7270   57.5490   47.5390 C.ar      1 ZRM1389     0.0000 
     10 C18       105.6260   59.5670   46.3030 C.ar      1 ZRM1389     0.0000 
     11 C5        110.3200   63.1230   45.1220 C.ar      1 ZRM1389     0.0000 
     12 C13       106.5990   62.6230   44.3910 C.2       1 ZRM1389     0.0000 
     13 C2        112.9160   62.8520   45.9600 C.ar      1 ZRM1389     0.0000 
     14 C15       106.2400   60.7220   45.6950 C.2       1 ZRM1389     0.0000 
     15 C17       107.8560   62.4430   44.9180 C.2       1 ZRM1389     0.0000 
     16 C9        108.7050   64.2640   43.8090 C.2       1 ZRM1389     0.0000 
     17 C8        108.9570   63.2530   44.6490 C.2       1 ZRM1389     0.0000 
     18 C11       106.3520   63.7100   43.4880 C.2       1 ZRM1389     0.0000 
     19 N21       104.4240   57.2690   47.4010 N.ar      1 ZRM1389     0.0000 
     20 N10       107.4660   64.4910   43.2620 N.am      1 ZRM1389     0.0000 
     21 O12       105.2580   63.9140   42.9890 O.2       1 ZRM1389     0.0000 
     22 O1        114.2230   62.7130   46.3840 O.3       1 ZRM1389     0.0000 
     23 S16       107.9010   61.0840   45.9630 S.3       1 ZRM1389     0.0000 
     24 H         110.3671   64.9678   46.1140 H         1 ZRM1389     0.0000 
     25 H         110.5959   61.2512   44.2228 H         1 ZRM1389     0.0000 
     26 H         112.6557   64.7322   46.8468 H         1 ZRM1389     0.0000 
     27 H         112.8756   61.0062   44.9738 H         1 ZRM1389     0.0000 
     28 H         103.6853   59.9782   45.6245 H         1 ZRM1389     0.0000 
     29 H         107.3732   58.7874   47.1571 H         1 ZRM1389     0.0000 
     30 H         104.7452   61.6303   44.5413 H         1 ZRM1389     0.0000 
     31 H         102.6845   58.0219   46.5475 H         1 ZRM1389     0.0000 
     32 H         106.3375   56.8628   48.1034 H         1 ZRM1389     0.0000 
     33 H         109.4884   64.9284   43.5446 H         1 ZRM1389     0.0000 
     34 H         107.3548   65.3315   42.6153 H         1 ZRM1389     0.0000 
     35 H         114.8004   63.2904   46.9614 H         1 ZRM1389     0.0000 
@<TRIPOS>BOND
     1    3    1 ar   
     2   11    1 ar   
     3   24    1 1    
     4    4    2 ar   
     5   11    2 ar   
     6   25    2 1    
     7   13    3 ar   
     8   26    3 1    
     9   13    4 ar   
    10   27    4 1    
    11    8    5 ar   
    12   10    5 ar   
    13   28    5 1    
    14    9    6 ar   
    15   10    6 ar   
    16   29    6 1    
    17   12    7 1    
    18   14    7 2    
    19   30    7 1    
    20   19    8 ar   
    21   31    8 1    
    22   19    9 ar   
    23   32    9 1    
    24   14   10 1    
    25   17   11 1    
    26   15   12 2    
    27   18   12 1    
    28   22   13 1    
    29   23   14 1    
    30   17   15 1    
    31   23   15 1    
    32   17   16 2    
    33   20   16 1    
    34   33   16 1    
    35   20   18 am   
    36   21   18 2    
    37   34   20 1    
    38   35   22 1    
@<TRIPOS>SUBSTRUCTURE
     1 ZRM1389     1 GROUP   
@<TRIPOS>SET

