#    Name: 1z71_L17_1_INTS_M
#    Modification time : Mon Apr  7 16:53:48 2014

@<TRIPOS>MOLECULE
1z71_L17_1_INTS_M
   84     0     9     0     0
SMALL
NO_CHARGES


@<TRIPOS>ATOM
      1 CA         21.2475  -13.9810   27.8615 C.3       3 GLC5        0.0000 
      2 CA         21.2230  -13.7280   25.6780 C.3       9 GLL5        0.0000 
      3 CA         21.2720  -14.2340   30.0450 C.3       6 GLP5        0.0000 
      4 O          16.1800  -15.6090   24.1460 O.2       1 ALC1        0.0000 
      5 O          17.5600  -15.8210   23.7490 O.2       7 ALL1        0.0000 
      6 O          14.8000  -15.3970   24.5430 O.2       4 ALP1        0.0000 
      7 CA         17.9065  -13.3590   23.6610 C.3       3 GLC5        0.0000 
      8 CA         18.2560  -15.2230   22.6700 C.3       9 GLL5        0.0000 
      9 CA         17.5570  -11.4950   24.6520 C.3       6 GLP5        0.0000 
     10 N          15.6550  -13.2840   23.8145 N.am      2 SEC2        0.0000 
     11 N          16.3940  -13.7880   22.6310 N.am      8 SEL2        0.0000 
     12 N          14.9160  -12.7800   24.9980 N.am      5 SEP2        0.0000 
     13 CA         19.8235  -11.3745   18.7450 C.3       3 GLC5        0.0000 
     14 CA         20.2830  -12.9060   19.4560 C.3       9 GLL5        0.0000 
     15 CA         19.3640   -9.8430   18.0340 C.3       6 GLP5        0.0000 
     16 CA         21.6965  -14.0525   19.0565 C.3       3 GLC5        0.0000 
     17 CA         23.1100  -15.1990   18.6570 C.3       6 GLP5        0.0000 
     18 CA         19.5455  -13.9810   18.1615 C.3       3 GLC5        0.0000 
     19 CA         18.8080  -15.0560   16.8670 C.3       6 GLP5        0.0000 
     20 CA         20.5465  -11.9155   21.1070 C.3       3 GLC5        0.0000 
     21 CA         20.8100  -10.9250   22.7580 C.3       6 GLP5        0.0000 
     22 CA         18.4410  -11.0190   19.3180 C.3       3 GLC5        0.0000 
     23 CA         17.5180  -12.1950   20.6020 C.3       9 GLL5        0.0000 
     24 CA         19.1640  -11.5600   21.6800 C.3       3 GLC5        0.0000 
     25 O          15.9495  -10.5105   21.3615 O.2       1 ALC1        0.0000 
     26 O          15.1880  -11.5910   20.6320 O.2       7 ALL1        0.0000 
     27 O          16.7110   -9.4300   22.0910 O.2       4 ALP1        0.0000 
     28 CA         18.8490  -16.1945   28.1600 C.3       3 GLC5        0.0000 
     29 CA         17.8050  -16.0930   26.6000 C.3       9 GLL5        0.0000 
     30 CA         19.8930  -16.2960   29.7200 C.3       6 GLP5        0.0000 
     31 CA         10.7940   -8.5705   23.1090 C.3       3 GLC5        0.0000 
     32 CA         12.4230   -8.7350   24.4950 C.3       9 GLL5        0.0000 
     33 CA          9.1650   -8.4060   21.7230 C.3       6 GLP5        0.0000 
     34 CA         12.4965   -7.8435   22.8840 C.3       3 GLC5        0.0000 
     35 CA         12.5700   -6.9520   21.2730 C.3       6 GLP5        0.0000 
     36 CA         11.8440   -9.3075   26.1040 C.3       3 GLC5        0.0000 
     37 CA         11.2650   -9.8800   27.7130 C.3       6 GLP5        0.0000 
     38 CA         13.4945   -8.4235   26.4035 C.3       3 GLC5        0.0000 
     39 CA         14.5660   -8.1120   28.3120 C.3       6 GLP5        0.0000 
     40 CA         11.4335   -7.1550   25.2720 C.3       3 GLC5        0.0000 
     41 CA         10.4440   -5.5750   26.0490 C.3       6 GLP5        0.0000 
     42 CA         11.0765  -11.5820   19.3805 C.3       3 GLC5        0.0000 
     43 CA         13.1740  -11.0330   19.3310 C.3       9 GLL5        0.0000 
     44 CA          8.9790  -12.1310   19.4300 C.3       6 GLP5        0.0000 
     45 CA         12.2130  -11.9770   17.8930 C.3       3 GLC5        0.0000 
     46 CA         11.2520  -12.9210   16.4550 C.3       6 GLP5        0.0000 
     47 CA         14.3290   -9.6090   18.3930 C.3       3 GLC5        0.0000 
     48 CA         15.4840   -8.1850   17.4550 C.3       6 GLP5        0.0000 
     49 CA         20.5333  -16.0542   27.4103 C.3       3 GLC5        0.0000 
     50 CA         20.0150  -14.4520   25.9800 C.3       9 GLL5        0.0000 
     51 CA         21.0550  -16.9510   28.9970 C.3       6 GLP5        0.0000 
     52 CA         19.0880  -12.7925   25.2405 C.3       3 GLC5        0.0000 
     53 CA         22.9810  -13.2260   26.4638 C.3       3 GLC5        0.0000 
     54 CA         24.1630  -12.4050   27.5520 C.3       6 GLP5        0.0000 
     55 CA         22.0250  -12.4630   24.3347 C.3       3 GLC5        0.0000 
     56 CA         22.3750  -14.3660   25.0730 C.3       9 GLL5        0.0000 
     57 CA         22.2510  -10.8790   23.2940 C.3       6 GLP5        0.0000 
     58 CA         19.9715  -17.1235   27.5363 C.3       3 GLC5        0.0000 
     59 CA         18.7320  -16.6920   25.8170 C.3       9 GLL5        0.0000 
     60 CA         17.7508  -14.6988   26.8957 C.3       3 GLC5        0.0000 
     61 CA         17.2330  -13.0050   27.5830 C.3       6 GLP5        0.0000 
     62 CA         17.7175  -12.1497   22.7670 C.3       3 GLC5        0.0000 
     63 CA         18.2380  -13.4140   21.1620 C.3       9 GLL5        0.0000 
     64 CA         20.1734  -12.6039   21.9132 C.3       3 GLC5        0.0000 
     65 CA         14.6235  -10.9345   23.1887 C.3       3 GLC5        0.0000 
     66 CA         12.9560  -11.5960   21.6780 C.3       9 GLL5        0.0000 
     67 CA         16.1940  -10.8740   24.3130 C.3       6 GLP5        0.0000 
     68 CA         12.6385   -8.6197   22.1423 C.3       3 GLC5        0.0000 
     69 CA         13.1500  -10.3940   22.4510 C.3       9 GLL5        0.0000 
     70 CA         10.4552   -9.5335   22.7355 C.3       3 GLC5        0.0000 
     71 CA         12.2640  -10.1810   23.5720 C.3       9 GLL5        0.0000 
     72 CA         14.2687  -10.1660   24.1732 C.3       3 GLC5        0.0000 
     73 CA         12.8473  -12.0950   24.7610 C.3       3 GLC5        0.0000 
     74 CA         13.9490  -13.5290   25.7740 C.3       6 GLP5        0.0000 
     75 CA         11.5053  -10.2705   25.7305 C.3       3 GLC5        0.0000 
     76 CA         11.2270  -11.1410   23.9240 C.3       9 GLL5        0.0000 
     77 CA         10.2200  -12.2812   21.0063 C.3       3 GLC5        0.0000 
     78 CA         11.0180  -12.3300   23.1430 C.3       9 GLL5        0.0000 
     79 CA         12.7050  -12.9802   24.1782 C.3       3 GLC5        0.0000 
     80 CA         11.9040  -12.5330   22.0220 C.3       9 GLL5        0.0000 
     81 CA         10.1260  -13.8048   21.7052 C.3       3 GLC5        0.0000 
     82 CA          8.7910  -15.1780   20.8280 C.3       6 GLP5        0.0000 
     83 CA         16.7270  -17.0773   27.0074 C.3       3 GLC5        0.0000 
     84 CA         15.1930  -17.4200   27.8410 C.3       6 GLP5        0.0000 
@<TRIPOS>BOND
@<TRIPOS>SUBSTRUCTURE
     1 ALC1        4 GROUP        1 X    ALC  0     ROOT ALC X 1
     2 SEC2       10 GROUP        1 X    SEC  0     **** SEC X 2
     3 GLC5        1 GROUP        1 X    GLC  0     **** GLC X 6
     4 ALP1        6 GROUP        1 Y    ALP  0     ROOT ALP Y 8
     5 SEP2       12 GROUP        1 Y    SEP  0     **** SEP Y 9
     6 GLP5        3 GROUP        1 Y    GLP  0     **** GLP Y 13
     7 ALL1        5 GROUP        1 Z    ALL  0     ROOT ALL Z 15
     8 SEL2       11 GROUP        1 Z    SEL  0     **** SEL Z 16
     9 GLL5        2 GROUP        1 Z    GLL  0     **** GLL Z 20
@<TRIPOS>SET

