#    Name: 1z71_L17_1_ligand
#    Modification time : Mon Apr  7 16:53:48 2014

@<TRIPOS>MOLECULE
1z71_L17_1_ligand
   53    55     1     0     0
SMALL
NO_CHARGES


@<TRIPOS>ATOM
      1 C8         20.0150  -14.4520   25.9800 C.ar      1 L171001     0.0000 
      2 C2         20.0080  -15.8630   25.6670 C.ar      1 L171001     0.0000 
      3 N1         21.1590  -16.4500   25.0960 N.pl3     1 L171001     0.0000 
      4 C4         22.3270  -15.7730   24.7830 C.ar      1 L171001     0.0000 
      5 C5         22.3750  -14.3660   25.0730 C.ar      1 L171001     0.0000 
      6 C6         21.2230  -13.7280   25.6780 C.ar      1 L171001     0.0000 
      7 C11        18.7320  -16.6920   25.8170 C.3       1 L171001     0.0000 
      8 C1         18.0480  -17.0120   24.5060 C.3       1 L171001     0.0000 
      9 N18        17.5600  -15.8210   23.7490 N.pl3     1 L171001     0.0000 
     10 C21        18.2560  -15.2230   22.6700 C.ar      1 L171001     0.0000 
     11 N2         17.6350  -14.1230   22.1380 N.pl3     1 L171001     0.0000 
     12 C10        18.2380  -13.4140   21.1620 C.ar      1 L171001     0.0000 
     13 C24        19.5230  -13.8110   20.6900 C.ar      1 L171001     0.0000 
     14 C25        20.1930  -14.9530   21.2110 C.ar      1 L171001     0.0000 
     15 C3         19.5470  -15.6850   22.2320 C.ar      1 L171001     0.0000 
     16 O28        16.3940  -13.7880   22.6310 O.2       1 L171001     0.0000 
     17 CL2        20.2830  -12.9060   19.4560 Cl        1 L171001     0.0000 
     18 C33        17.5180  -12.1950   20.6020 C.3       1 L171001     0.0000 
     19 C34        16.0640  -12.5320   20.2690 C.2       1 L171001     0.0000 
     20 N37        15.1880  -11.5910   20.6320 N.am      1 L171001     0.0000 
     21 O38        15.7710  -13.5730   19.6870 O.2       1 L171001     0.0000 
     22 C39        13.7570  -11.8680   20.4670 C.3       1 L171001     0.0000 
     23 C40        12.9560  -11.5960   21.6780 C.ar      1 L171001     0.0000 
     24 C43        13.1500  -10.3940   22.4510 C.ar      1 L171001     0.0000 
     25 C44        12.2640  -10.1810   23.5720 C.ar      1 L171001     0.0000 
     26 C45        11.2270  -11.1410   23.9240 C.ar      1 L171001     0.0000 
     27 C50        11.9040  -12.5330   22.0220 C.ar      1 L171001     0.0000 
     28 C9         11.0180  -12.3300   23.1430 C.ar      1 L171001     0.0000 
     29 F1         19.0440  -17.9000   26.3340 F         1 L171001     0.0000 
     30 F2         17.8050  -16.0930   26.6000 F         1 L171001     0.0000 
     31 CL1        12.4230   -8.7350   24.4950 Cl        1 L171001     0.0000 
     32 O1         21.1140  -17.7710   24.7870 O.2       1 L171001     0.0000 
     33 C7         13.1740  -11.0330   19.3310 C.3       1 L171001     0.0000 
     34 H          19.2295  -14.0086   26.3809 H         1 L171001     0.0000 
     35 H          23.1216  -16.2253   24.3696 H         1 L171001     0.0000 
     36 H          23.1959  -13.8260   24.8606 H         1 L171001     0.0000 
     37 H          21.2733  -12.7266   25.8972 H         1 L171001     0.0000 
     38 H          17.1952  -17.6950   24.7085 H         1 L171001     0.0000 
     39 H          18.7528  -17.5896   23.8702 H         1 L171001     0.0000 
     40 H          16.6490  -15.4284   24.0566 H         1 L171001     0.0000 
     41 H          21.0932  -15.2251   20.8621 H         1 L171001     0.0000 
     42 H          19.9611  -16.4964   22.6436 H         1 L171001     0.0000 
     43 H          18.0231  -11.8598   19.6978 H         1 L171001     0.0000 
     44 H          17.5393  -11.3924   21.3372 H         1 L171001     0.0000 
     45 H          15.4451  -10.6878   21.0182 H         1 L171001     0.0000 
     46 H          13.6136  -12.9182   20.1827 H         1 L171001     0.0000 
     47 H          13.8597   -9.7420   22.2241 H         1 L171001     0.0000 
     48 H          10.6441  -10.9599   24.7386 H         1 L171001     0.0000 
     49 H          11.7870  -13.3747   21.4424 H         1 L171001     0.0000 
     50 H          10.3043  -12.9772   23.3607 H         1 L171001     0.0000 
     51 H          13.2774  -10.0528   19.4996 H         1 L171001     0.0000 
     52 H          13.6214  -11.2291   18.4585 H         1 L171001     0.0000 
     53 H          12.1974  -11.2073   19.2053 H         1 L171001     0.0000 
@<TRIPOS>BOND
     1    2    1 ar   
     2    6    1 ar   
     3   34    1 1    
     4    3    2 ar   
     5    7    2 1    
     6    4    3 ar   
     7   32    3 1    
     8    5    4 ar   
     9   35    4 1    
    10    6    5 ar   
    11   36    5 1    
    12   37    6 1    
    13    8    7 1    
    14   29    7 1    
    15   30    7 1    
    16    9    8 1    
    17   38    8 1    
    18   39    8 1    
    19   10    9 1    
    20   40    9 1    
    21   11   10 ar   
    22   15   10 ar   
    23   12   11 ar   
    24   16   11 1    
    25   13   12 ar   
    26   18   12 1    
    27   14   13 ar   
    28   17   13 1    
    29   15   14 ar   
    30   41   14 1    
    31   42   15 1    
    32   19   18 1    
    33   43   18 1    
    34   44   18 1    
    35   20   19 am   
    36   21   19 2    
    37   22   20 1    
    38   45   20 1    
    39   23   22 1    
    40   33   22 1    
    41   46   22 1    
    42   24   23 ar   
    43   27   23 ar   
    44   25   24 ar   
    45   47   24 1    
    46   26   25 ar   
    47   31   25 1    
    48   28   26 ar   
    49   48   26 1    
    50   28   27 ar   
    51   49   27 1    
    52   50   28 1    
    53   51   33 1    
    54   52   33 1    
    55   53   33 1    
@<TRIPOS>SUBSTRUCTURE
     1 L171001     1 GROUP   
@<TRIPOS>SET

