#    Name: 1ygj_RMC_1_INTS_M
#    Modification time : Tue Mar 25 11:03:27 2014

@<TRIPOS>MOLECULE
1ygj_RMC_1_INTS_M
   63     0     9     0     0
SMALL
NO_CHARGES


@<TRIPOS>ATOM
      1 CA        -13.2235   60.8300   40.0000 C.3       3 GLC5        0.0000 
      2 CA        -13.3570   60.9150   38.0220 C.3       9 GLL5        0.0000 
      3 CA        -13.0900   60.7450   41.9780 C.3       6 GLP5        0.0000 
      4 CA        -12.4370   61.0500   33.9055 C.3       3 GLC5        0.0000 
      5 CA        -12.7030   60.2330   35.9290 C.3       9 GLL5        0.0000 
      6 CA        -12.1710   61.8670   31.8820 C.3       6 GLP5        0.0000 
      7 CA        -12.3225   60.1225   33.2420 C.3       3 GLC5        0.0000 
      8 CA        -12.6680   59.7100   34.9400 C.3       9 GLL5        0.0000 
      9 CA        -11.9770   60.5350   31.5440 C.3       6 GLP5        0.0000 
     10 O         -13.9955   58.1265   37.9865 O.2       1 ALC1        0.0000 
     11 O         -14.5450   59.1890   37.3790 O.2       7 ALL1        0.0000 
     12 O         -13.4460   57.0640   38.5940 O.2       4 ALP1        0.0000 
     13 CA        -16.8595   59.1850   38.4380 C.3       3 GLC5        0.0000 
     14 CA        -15.7490   58.8120   36.8450 C.3       9 GLL5        0.0000 
     15 CA        -17.9700   59.5580   40.0310 C.3       6 GLP5        0.0000 
     16 CA        -18.8075   60.2340   36.2810 C.3       3 GLC5        0.0000 
     17 CA        -17.5150   59.1800   35.3030 C.3       9 GLL5        0.0000 
     18 CA        -20.1000   61.2880   37.2590 C.3       6 GLP5        0.0000 
     19 CA        -17.4930   59.3790   31.5210 C.3       3 GLC5        0.0000 
     20 CA        -17.0820   60.8430   32.4110 C.3       9 GLL5        0.0000 
     21 CA        -17.9040   57.9150   30.6310 C.3       6 GLP5        0.0000 
     22 CA        -16.1055   60.4240   30.6425 C.3       3 GLC5        0.0000 
     23 CA        -15.1290   60.0050   28.8740 C.3       6 GLP5        0.0000 
     24 CA        -17.7180   62.6425   36.0470 C.3       3 GLC5        0.0000 
     25 CA        -18.5090   62.1890   34.0810 C.3       9 GLL5        0.0000 
     26 CA        -16.9270   63.0960   38.0130 C.3       6 GLP5        0.0000 
     27 CA        -19.3085   63.4780   34.6450 C.3       3 GLC5        0.0000 
     28 CA        -20.1080   64.7670   35.2090 C.3       6 GLP5        0.0000 
     29 N         -20.5010   57.1780   34.7350 N.am      2 SEC2        0.0000 
     30 N         -19.3420   57.9140   34.8950 N.am      8 SEL2        0.0000 
     31 N         -21.6600   56.4420   34.5750 N.am      5 SEP2        0.0000 
     32 N         -15.9455   57.6455   38.8500 N.am      2 SEC2        0.0000 
     33 N         -16.3830   57.6780   37.2390 N.am      8 SEL2        0.0000 
     34 N         -15.5080   57.6130   40.4610 N.am      5 SEP2        0.0000 
     35 CA        -17.7725   58.4015   38.3715 C.3       3 GLC5        0.0000 
     36 CA        -17.5750   57.2450   36.7120 C.3       9 GLL5        0.0000 
     37 CA        -20.1355   55.0730   35.4550 C.3       3 GLC5        0.0000 
     38 CA        -18.4950   55.0870   36.5880 C.3       9 GLL5        0.0000 
     39 CA        -21.7760   55.0590   34.3220 C.3       6 GLP5        0.0000 
     40 CA        -14.6625   52.2285   34.3240 C.3       3 GLC5        0.0000 
     41 CA        -16.1110   52.6380   35.7500 C.3       9 GLL5        0.0000 
     42 CA        -13.2140   51.8190   32.8980 C.3       6 GLP5        0.0000 
     43 CA        -20.5325   56.3185   39.0905 C.3       3 GLC5        0.0000 
     44 CA        -19.1130   56.4030   38.2010 C.3       9 GLL5        0.0000 
     45 CA        -21.9520   56.2340   39.9800 C.3       6 GLP5        0.0000 
     46 CA        -20.1815   57.7505   37.5680 C.3       3 GLC5        0.0000 
     47 CA        -21.2500   59.0980   36.9350 C.3       6 GLP5        0.0000 
     48 CA        -18.4870   57.3125   39.4970 C.3       3 GLC5        0.0000 
     49 CA        -17.8610   58.2220   40.7930 C.3       6 GLP5        0.0000 
     50 CA        -15.2370   61.8722   37.7575 C.3       3 GLC5        0.0000 
     51 CA        -13.7370   60.3820   36.9820 C.3       9 GLL5        0.0000 
     52 CA        -19.0633   61.4558   35.6118 C.3       3 GLC5        0.0000 
     53 CA        -17.5440   61.0580   33.8480 C.3       9 GLL5        0.0000 
     54 CA        -19.5613   58.3665   36.5590 C.3       3 GLC5        0.0000 
     55 CA        -18.1700   58.0250   35.6540 C.3       9 GLL5        0.0000 
     56 CA        -18.4622   52.8270   39.4865 C.3       3 GLC5        0.0000 
     57 CA        -16.5510   52.5510   38.1770 C.3       9 GLL5        0.0000 
     58 CA        -19.8700   52.6100   40.8620 C.3       6 GLP5        0.0000 
     59 CA        -19.2782   53.0107   36.3514 C.3       3 GLC5        0.0000 
     60 CA        -17.5580   53.5370   38.0450 C.3       9 GLL5        0.0000 
     61 CA        -20.9580   52.2020   35.6100 C.3       6 GLP5        0.0000 
     62 CA        -15.3909   53.9817   38.8224 C.3       3 GLC5        0.0000 
     63 CA        -13.9070   55.0330   39.8190 C.3       6 GLP5        0.0000 
@<TRIPOS>BOND
@<TRIPOS>SUBSTRUCTURE
     1 ALC1       10 GROUP        1 X    ALC  0     ROOT ALC X 1
     2 SEC2       29 GROUP        1 X    SEC  0     **** SEC X 2
     3 GLC5        1 GROUP        1 X    GLC  0     **** GLC X 6
     4 ALP1       12 GROUP        1 Y    ALP  0     ROOT ALP Y 8
     5 SEP2       31 GROUP        1 Y    SEP  0     **** SEP Y 9
     6 GLP5        3 GROUP        1 Y    GLP  0     **** GLP Y 13
     7 ALL1       11 GROUP        1 Z    ALL  0     ROOT ALL Z 15
     8 SEL2       30 GROUP        1 Z    SEL  0     **** SEL Z 16
     9 GLL5        2 GROUP        1 Z    GLL  0     **** GLL Z 20
@<TRIPOS>SET

