#    Name: 1ygj_RMC_1_ligand
#    Modification time : Tue Mar 25 11:03:27 2014

@<TRIPOS>MOLECULE
1ygj_RMC_1_ligand
   55    57     1     0     0
SMALL
NO_CHARGES


@<TRIPOS>ATOM
      1 OAP       -13.1920   62.1370   38.3190 O.3       1 RMC1001     0.0000 
      2 CAQ       -13.3570   60.9150   38.0220 C.3       1 RMC1001     0.0000 
      3 CAR       -13.7370   60.3820   36.9820 C.3       1 RMC1001     0.0000 
      4 CAK       -12.7030   60.2330   35.9290 C.3       1 RMC1001     0.0000 
      5 CAI       -12.6680   59.7100   34.9400 C.3       1 RMC1001     0.0000 
      6 NAS       -14.5450   59.1890   37.3790 N.pl3     1 RMC1001     0.0000 
      7 CAT       -15.7490   58.8120   36.8450 C.ar      1 RMC1001     0.0000 
      8 NAU       -16.3240   59.5620   35.8540 N.ar      1 RMC1001     0.0000 
      9 CAV       -17.5150   59.1800   35.3030 C.ar      1 RMC1001     0.0000 
     10 NAW       -18.1700   59.7940   34.3340 N.pl3     1 RMC1001     0.0000 
     11 CAZ       -17.5440   61.0580   33.8480 C.3       1 RMC1001     0.0000 
     12 CAY       -17.0820   60.8430   32.4110 C.3       1 RMC1001     0.0000 
     13 CBA       -18.5090   62.1890   34.0810 C.3       1 RMC1001     0.0000 
     14 CAX       -19.2930   59.0440   34.0750 C.2       1 RMC1001     0.0000 
     15 CAN       -18.1700   58.0250   35.6540 C.ar      1 RMC1001     0.0000 
     16 NAO       -19.3420   57.9140   34.8950 N.2       1 RMC1001     0.0000 
     17 NAL       -16.3830   57.6780   37.2390 N.ar      1 RMC1001     0.0000 
     18 CAM       -17.5750   57.2450   36.7120 C.ar      1 RMC1001     0.0000 
     19 NAJ       -18.1040   56.0640   37.2380 N.3       1 RMC1001     0.0000 
     20 CAD       -18.4950   55.0870   36.5880 C.3       1 RMC1001     0.0000 
     21 CAE       -17.1230   53.6330   35.6050 C.ar      1 RMC1001     0.0000 
     22 CAG       -16.1110   52.6380   35.7500 C.ar      1 RMC1001     0.0000 
     23 CAH       -15.8320   52.0970   37.0360 C.ar      1 RMC1001     0.0000 
     24 CAF       -16.5510   52.5510   38.1770 C.ar      1 RMC1001     0.0000 
     25 CAC       -17.5580   53.5370   38.0450 C.ar      1 RMC1001     0.0000 
     26 CAB       -17.8150   54.0540   36.7650 C.ar      1 RMC1001     0.0000 
     27 CBB       -19.1130   56.4030   38.2010 C.3       1 RMC1001     0.0000 
     28 H         -14.0043   60.4184   38.9544 H         1 RMC1001     0.0000 
     29 H         -12.3278   60.3299   38.3872 H         1 RMC1001     0.0000 
     30 H         -14.5521   61.0793   36.4877 H         1 RMC1001     0.0000 
     31 H         -11.7150   59.9548   36.6450 H         1 RMC1001     0.0000 
     32 H         -12.3145   61.4200   35.8490 H         1 RMC1001     0.0000 
     33 H         -14.1043   58.6093   38.1512 H         1 RMC1001     0.0000 
     34 H         -16.6492   61.2280   34.4688 H         1 RMC1001     0.0000 
     35 H         -19.9677   59.2602   33.4142 H         1 RMC1001     0.0000 
     36 H         -18.5642   55.3412   35.4511 H         1 RMC1001     0.0000 
     37 H         -19.6240   54.8733   36.7920 H         1 RMC1001     0.0000 
     38 H         -17.3343   54.0204   34.7023 H         1 RMC1001     0.0000 
     39 H         -15.5929   52.3183   34.9377 H         1 RMC1001     0.0000 
     40 H         -15.1138   51.3809   37.1406 H         1 RMC1001     0.0000 
     41 H         -16.3364   52.1604   39.0967 H         1 RMC1001     0.0000 
     42 H         -18.0737   53.8559   38.8512 H         1 RMC1001     0.0000 
     43 H         -11.7817   59.8236   34.4910 H         1 RMC1001     0.0000 
     44 H         -12.8251   58.7269   35.0340 H         1 RMC1001     0.0000 
     45 H         -13.3623   60.0589   34.3106 H         1 RMC1001     0.0000 
     46 H         -16.6495   61.6618   32.0335 H         1 RMC1001     0.0000 
     47 H         -16.4150   60.1011   32.3424 H         1 RMC1001     0.0000 
     48 H         -17.8439   60.6090   31.8070 H         1 RMC1001     0.0000 
     49 H         -18.7329   62.2925   35.0501 H         1 RMC1001     0.0000 
     50 H         -18.1374   63.0641   33.7710 H         1 RMC1001     0.0000 
     51 H         -19.3712   62.0478   33.5944 H         1 RMC1001     0.0000 
     52 H         -18.7411   56.9482   38.9523 H         1 RMC1001     0.0000 
     53 H         -19.8536   56.9354   37.7911 H         1 RMC1001     0.0000 
     54 H         -19.5274   55.5885   38.6071 H         1 RMC1001     0.0000 
     55 H         -12.6146   62.7144   38.8964 H         1 RMC1001     0.0000 
@<TRIPOS>BOND
     1    2    1 1    
     2   55    1 1    
     3    3    2 1    
     4   28    2 1    
     5   29    2 1    
     6    4    3 1    
     7    6    3 1    
     8   30    3 1    
     9    5    4 1    
    10   31    4 1    
    11   32    4 1    
    12   43    5 1    
    13   44    5 1    
    14   45    5 1    
    15    7    6 1    
    16   33    6 1    
    17    8    7 ar   
    18   17    7 ar   
    19    9    8 ar   
    20   10    9 1    
    21   15    9 ar   
    22   11   10 1    
    23   14   10 1    
    24   12   11 1    
    25   13   11 1    
    26   34   11 1    
    27   46   12 1    
    28   47   12 1    
    29   48   12 1    
    30   49   13 1    
    31   50   13 1    
    32   51   13 1    
    33   16   14 2    
    34   35   14 1    
    35   16   15 1    
    36   18   15 ar   
    37   18   17 ar   
    38   19   18 1    
    39   20   19 1    
    40   27   19 1    
    41   26   20 1    
    42   36   20 1    
    43   37   20 1    
    44   22   21 ar   
    45   26   21 ar   
    46   38   21 1    
    47   23   22 ar   
    48   39   22 1    
    49   24   23 ar   
    50   40   23 1    
    51   25   24 ar   
    52   41   24 1    
    53   26   25 ar   
    54   42   25 1    
    55   52   27 1    
    56   53   27 1    
    57   54   27 1    
@<TRIPOS>SUBSTRUCTURE
     1 RMC1001     1 GROUP   
@<TRIPOS>SET

