#    Name: 1d3p_BT3_1_INTS_M
#    Modification time : Mon Mar 24 21:23:30 2014

@<TRIPOS>MOLECULE
1d3p_BT3_1_INTS_M
   83     0     6     0     0
SMALL
NO_CHARGES


@<TRIPOS>ATOM
      1 CA        -24.0570  -30.3020   26.3555 C.3       2 GLC5        0.0000 
      2 CA        -23.9940  -30.7750   24.3250 C.3       6 GLL5        0.0000 
      3 CA        -24.1200  -29.8290   28.3860 C.3       4 GLP5        0.0000 
      4 CA        -21.2675  -29.2915   21.0625 C.3       2 GLC5        0.0000 
      5 CA        -21.9300  -30.3610   22.8010 C.3       6 GLL5        0.0000 
      6 CA        -20.6050  -28.2220   19.3240 C.3       4 GLP5        0.0000 
      7 CA        -22.1575  -31.5930   25.1290 C.3       2 GLC5        0.0000 
      8 CA        -22.7970  -29.9500   23.9710 C.3       6 GLL5        0.0000 
      9 CA        -21.5180  -33.2360   26.2870 C.3       4 GLP5        0.0000 
     10 CA        -25.1000  -32.8955   20.7595 C.3       2 GLC5        0.0000 
     11 CA        -23.4720  -33.7660   21.3860 C.3       6 GLL5        0.0000 
     12 CA        -26.7280  -32.0250   20.1330 C.3       4 GLP5        0.0000 
     13 CA        -25.1945  -34.4130   21.4440 C.3       2 GLC5        0.0000 
     14 CA        -26.9170  -35.0600   21.5020 C.3       4 GLP5        0.0000 
     15 CA        -23.0165  -33.5670   18.3020 C.3       2 GLC5        0.0000 
     16 CA        -21.5670  -34.2480   19.4080 C.3       6 GLL5        0.0000 
     17 CA        -24.4660  -32.8860   17.1960 C.3       4 GLP5        0.0000 
     18 CA        -22.9925  -34.9890   18.0805 C.3       2 GLC5        0.0000 
     19 CA        -21.5800  -35.7130   19.6340 C.3       6 GLL5        0.0000 
     20 CA        -24.4050  -34.2650   16.5270 C.3       4 GLP5        0.0000 
     21 CA        -18.1130  -36.9780   17.7640 C.3       2 GLC5        0.0000 
     22 CA        -19.2670  -38.0560   16.8160 C.3       6 GLL5        0.0000 
     23 CA        -16.9590  -35.9000   18.7120 C.3       4 GLP5        0.0000 
     24 CA        -16.8265  -30.8310   19.7595 C.3       2 GLC5        0.0000 
     25 CA        -17.4020  -32.2260   20.9170 C.3       6 GLL5        0.0000 
     26 CA        -16.2510  -29.4360   18.6020 C.3       4 GLP5        0.0000 
     27 CA        -15.7725  -36.6945   21.0740 C.3       2 GLC5        0.0000 
     28 CA        -15.2970  -36.3530   23.1420 C.3       6 GLL5        0.0000 
     29 CA        -16.2480  -37.0360   19.0060 C.3       4 GLP5        0.0000 
     30 CA        -13.9840  -34.0930   29.1695 C.3       2 GLC5        0.0000 
     31 CA        -14.3200  -34.1770   27.1840 C.3       6 GLL5        0.0000 
     32 CA        -13.6480  -34.0090   31.1550 C.3       4 GLP5        0.0000 
     33 CA        -15.8710  -33.0980   27.3530 C.3       2 GLC5        0.0000 
     34 CA        -17.4220  -32.0190   27.5220 C.3       4 GLP5        0.0000 
     35 CA        -14.4970  -36.1615   28.4865 C.3       2 GLC5        0.0000 
     36 CA        -15.1360  -35.4110   26.7880 C.3       6 GLL5        0.0000 
     37 CA        -13.8580  -36.9120   30.1850 C.3       4 GLP5        0.0000 
     38 CA        -16.5995  -34.3300   27.2605 C.3       2 GLC5        0.0000 
     39 CA        -18.0630  -33.2490   27.7330 C.3       4 GLP5        0.0000 
     40 CA        -15.1420  -38.1805   15.4825 C.3       2 GLC5        0.0000 
     41 CA        -16.5970  -39.1690   14.5220 C.3       6 GLL5        0.0000 
     42 CA        -13.6870  -37.1920   16.4430 C.3       4 GLP5        0.0000 
     43 CA        -14.5385  -37.5225   14.2790 C.3       2 GLC5        0.0000 
     44 CA        -16.1140  -38.3340   13.3300 C.3       6 GLL5        0.0000 
     45 CA        -12.9630  -36.7110   15.2280 C.3       4 GLP5        0.0000 
     46 CA        -16.3310  -36.2980   14.9495 C.3       2 GLC5        0.0000 
     47 CA        -17.1020  -37.1810   13.1160 C.3       6 GLL5        0.0000 
     48 CA        -15.5600  -35.4150   16.7830 C.3       4 GLP5        0.0000 
     49 O         -26.0505  -30.4985   25.7090 O.2       1 ALC1        0.0000 
     50 O         -24.6930  -30.4970   25.4850 O.2       5 ALL1        0.0000 
     51 O         -27.4080  -30.5000   25.9330 O.2       3 ALP1        0.0000 
     52 CA        -25.3053  -32.1120   21.5400 C.3       2 GLC5        0.0000 
     53 CA        -24.3270  -32.0090   23.5060 C.3       6 GLL5        0.0000 
     54 CA        -25.3998  -33.6295   22.2245 C.3       2 GLC5        0.0000 
     55 CA        -23.4380  -32.3890   22.3880 C.3       6 GLL5        0.0000 
     56 CA        -22.6586  -32.5632   24.7194 C.3       2 GLC5        0.0000 
     57 CA        -22.8849  -28.6044   22.9002 C.3       2 GLC5        0.0000 
     58 CA        -23.1070  -26.8470   22.3260 C.3       4 GLP5        0.0000 
     59 CA        -25.0154  -29.5050   23.2381 C.3       2 GLC5        0.0000 
     60 CA        -26.5520  -28.3390   22.5330 C.3       4 GLP5        0.0000 
     61 CA        -20.8071  -30.5962   23.9578 C.3       2 GLC5        0.0000 
     62 CA        -19.1740  -30.7360   24.7200 C.3       4 GLP5        0.0000 
     63 CA        -23.6232  -33.2278   19.0660 C.3       2 GLC5        0.0000 
     64 CA        -22.0890  -33.3730   20.4860 C.3       6 GLL5        0.0000 
     65 CA        -20.6792  -30.0953   20.0768 C.3       2 GLC5        0.0000 
     66 CA        -21.4850  -32.1650   20.9830 C.3       6 GLL5        0.0000 
     67 CA        -19.2987  -31.4690   22.8397 C.3       2 GLC5        0.0000 
     68 CA        -20.0220  -31.7720   20.6760 C.3       6 GLL5        0.0000 
     69 CA        -21.9401  -34.7604   16.5125 C.3       2 GLC5        0.0000 
     70 CA        -20.9210  -33.7190   18.1810 C.3       6 GLL5        0.0000 
     71 CA        -23.3730  -34.3540   15.4190 C.3       4 GLP5        0.0000 
     72 CA        -15.5995  -31.5392   22.1623 C.3       2 GLC5        0.0000 
     73 CA        -14.3830  -30.4190   23.1890 C.3       4 GLP5        0.0000 
     74 CA        -17.3010  -32.0233   23.0508 C.3       2 GLC5        0.0000 
     75 CA        -16.2300  -33.0930   21.3540 C.3       6 GLL5        0.0000 
     76 CA        -17.7860  -31.3870   24.9660 C.3       4 GLP5        0.0000 
     77 CA        -17.6206  -32.8606   23.5859 C.3       2 GLC5        0.0000 
     78 CA        -16.4900  -34.3800   22.0930 C.3       6 GLL5        0.0000 
     79 CA        -12.4168  -33.0665   27.5422 C.3       2 GLC5        0.0000 
     80 CA        -11.0130  -32.0930   28.4410 C.3       4 GLP5        0.0000 
     81 CA        -13.3187  -32.5092   24.7323 C.3       2 GLC5        0.0000 
     82 CA        -13.3210  -33.9030   26.1030 C.3       6 GLL5        0.0000 
     83 CA        -13.1070  -30.7440   23.9820 C.3       4 GLP5        0.0000 
@<TRIPOS>BOND
@<TRIPOS>SUBSTRUCTURE
     1 ALC1       49 GROUP        1 X    ALC  0     ROOT ALC X 1
     2 GLC5        1 GROUP        1 X    GLC  0     **** GLC X 6
     3 ALP1       51 GROUP        1 Y    ALP  0     ROOT ALP Y 8
     4 GLP5        3 GROUP        1 Y    GLP  0     **** GLP Y 13
     5 ALL1       50 GROUP        1 Z    ALL  0     ROOT ALL Z 15
     6 GLL5        2 GROUP        1 Z    GLL  0     **** GLL Z 20
@<TRIPOS>SET

