#    Name: 1d3p_BT3_1_ligand
#    Modification time : Mon Mar 24 21:23:30 2014

@<TRIPOS>MOLECULE
1d3p_BT3_1_ligand
   78    83     1     0     0
SMALL
NO_CHARGES


@<TRIPOS>ATOM
      1 C1        -23.9940  -30.7750   24.3250 C.ar      1 BT3400      0.0000 
      2 C2        -24.3270  -32.0090   23.5060 C.ar      1 BT3400      0.0000 
      3 C3        -23.4380  -32.3890   22.3880 C.ar      1 BT3400      0.0000 
      4 C4        -22.2370  -31.5650   22.0390 C.ar      1 BT3400      0.0000 
      5 C5        -21.9300  -30.3610   22.8010 C.ar      1 BT3400      0.0000 
      6 C6        -22.7970  -29.9500   23.9710 C.ar      1 BT3400      0.0000 
      7 S1        -23.4720  -33.7660   21.3860 S.3       1 BT3400      0.0000 
      8 C8        -22.0890  -33.3730   20.4860 C.2       1 BT3400      0.0000 
      9 C9        -21.4850  -32.1650   20.9830 C.2       1 BT3400      0.0000 
     10 C7        -20.0220  -31.7720   20.6760 C.3       1 BT3400      0.0000 
     11 C10       -21.5670  -34.2480   19.4080 C.ar      1 BT3400      0.0000 
     12 C12       -20.9210  -33.7190   18.1810 C.ar      1 BT3400      0.0000 
     13 C14       -20.2840  -34.6560   17.1910 C.ar      1 BT3400      0.0000 
     14 C16       -20.4120  -36.1460   17.5260 C.ar      1 BT3400      0.0000 
     15 N1        -21.0100  -36.6180   18.7200 N.ar      1 BT3400      0.0000 
     16 C20       -21.5800  -35.7130   19.6340 C.ar      1 BT3400      0.0000 
     17 O2        -20.2720  -36.9910   16.5030 O.3       1 BT3400      0.0000 
     18 C24       -19.2670  -38.0560   16.8160 C.3       1 BT3400      0.0000 
     19 C11       -18.9900  -33.8760   22.0940 C.ar      1 BT3400      0.0000 
     20 C13       -18.8250  -32.6320   21.2430 C.ar      1 BT3400      0.0000 
     21 C15       -17.4020  -32.2260   20.9170 C.ar      1 BT3400      0.0000 
     22 C32       -16.2300  -33.0930   21.3540 C.ar      1 BT3400      0.0000 
     23 C19       -16.4900  -34.3800   22.0930 C.ar      1 BT3400      0.0000 
     24 C21       -17.8510  -34.7010   22.5430 C.ar      1 BT3400      0.0000 
     25 O3        -15.4370  -35.2690   22.1850 O.3       1 BT3400      0.0000 
     26 C25       -15.2970  -36.3530   23.1420 C.3       1 BT3400      0.0000 
     27 C17       -13.3210  -33.9030   26.1030 C.3       1 BT3400      0.0000 
     28 C23       -14.3200  -34.1770   27.1840 C.3       1 BT3400      0.0000 
     29 C26       -15.1360  -35.4110   26.7880 C.3       1 BT3400      0.0000 
     30 N2        -14.5280  -35.7720   25.4690 N.4       1 BT3400      0.0000 
     31 C27       -13.7400  -34.6460   24.8620 C.3       1 BT3400      0.0000 
     32 C22       -18.3920  -37.5470   13.8330 C.3       1 BT3400      0.0000 
     33 N3        -17.7740  -38.3120   14.9930 N.4       1 BT3400      0.0000 
     34 C28       -16.5970  -39.1690   14.5220 C.3       1 BT3400      0.0000 
     35 C29       -16.1140  -38.3340   13.3300 C.3       1 BT3400      0.0000 
     36 C30       -17.1020  -37.1810   13.1160 C.3       1 BT3400      0.0000 
     37 C33       -15.6990  -36.0210   24.5810 C.3       1 BT3400      0.0000 
     38 C34       -19.0660  -38.8860   15.5360 C.3       1 BT3400      0.0000 
     39 O1        -24.6930  -30.4970   25.4850 O.3       1 BT3400      0.0000 
     40 H         -25.1279  -32.5370   23.7305 H         1 BT3400      0.0000 
     41 H         -21.1450  -29.7856   22.5675 H         1 BT3400      0.0000 
     42 H         -22.5688  -29.1440   24.4912 H         1 BT3400      0.0000 
     43 H         -19.8592  -30.7112   21.0155 H         1 BT3400      0.0000 
     44 H         -19.8939  -31.7198   19.5589 H         1 BT3400      0.0000 
     45 H         -20.9044  -32.7382   18.0036 H         1 BT3400      0.0000 
     46 H         -19.8320  -34.3588   16.4105 H         1 BT3400      0.0000 
     47 H         -22.0275  -36.0472   20.4959 H         1 BT3400      0.0000 
     48 H         -19.6329  -38.7023   17.5952 H         1 BT3400      0.0000 
     49 H         -18.3255  -37.6154   17.0957 H         1 BT3400      0.0000 
     50 H         -19.9347  -34.1407   22.3591 H         1 BT3400      0.0000 
     51 H         -17.2302  -31.3899   20.4154 H         1 BT3400      0.0000 
     52 H         -15.3096  -32.8087   21.1518 H         1 BT3400      0.0000 
     53 H         -18.0094  -35.4778   23.1536 H         1 BT3400      0.0000 
     54 H         -14.2412  -36.7198   23.1656 H         1 BT3400      0.0000 
     55 H         -15.9005  -37.2379   22.8216 H         1 BT3400      0.0000 
     56 H         -12.3382  -34.2423   26.4143 H         1 BT3400      0.0000 
     57 H         -13.2863  -32.8386   25.8940 H         1 BT3400      0.0000 
     58 H         -14.9901  -33.3353   27.2977 H         1 BT3400      0.0000 
     59 H         -13.8150  -34.3762   28.1198 H         1 BT3400      0.0000 
     60 H         -16.1495  -35.1374   26.6711 H         1 BT3400      0.0000 
     61 H         -14.9765  -36.1780   27.4965 H         1 BT3400      0.0000 
     62 H         -13.9544  -36.6468   25.5475 H         1 BT3400      0.0000 
     63 H         -12.8932  -35.0214   24.3602 H         1 BT3400      0.0000 
     64 H         -14.3656  -34.0397   24.2697 H         1 BT3400      0.0000 
     65 H         -18.8639  -36.6883   14.1815 H         1 BT3400      0.0000 
     66 H         -18.9598  -38.1884   13.2433 H         1 BT3400      0.0000 
     67 H         -17.4435  -37.5309   15.6855 H         1 BT3400      0.0000 
     68 H         -16.9420  -40.0982   14.1885 H         1 BT3400      0.0000 
     69 H         -15.8566  -39.1964   15.2601 H         1 BT3400      0.0000 
     70 H         -16.0866  -38.9511   12.4475 H         1 BT3400      0.0000 
     71 H         -15.1372  -37.9339   13.5448 H         1 BT3400      0.0000 
     72 H         -16.6937  -36.2802   13.5370 H         1 BT3400      0.0000 
     73 H         -17.2899  -37.0644   12.0641 H         1 BT3400      0.0000 
     74 H         -16.2990  -36.8567   24.9755 H         1 BT3400      0.0000 
     75 H         -16.3526  -35.1342   24.5631 H         1 BT3400      0.0000 
     76 H         -19.8598  -38.6996   14.8694 H         1 BT3400      0.0000 
     77 H         -18.9388  -39.8996   15.7922 H         1 BT3400      0.0000 
     78 H         -25.6540  -30.6406   25.2486 H         1 BT3400      0.0000 
@<TRIPOS>BOND
     1    2    1 ar   
     2    6    1 ar   
     3   39    1 1    
     4    3    2 ar   
     5   40    2 1    
     6    4    3 ar   
     7    7    3 1    
     8    5    4 ar   
     9    9    4 1    
    10    6    5 ar   
    11   41    5 1    
    12   42    6 1    
    13    8    7 1    
    14    9    8 2    
    15   11    8 1    
    16   10    9 1    
    17   20   10 1    
    18   43   10 1    
    19   44   10 1    
    20   12   11 ar   
    21   16   11 ar   
    22   13   12 ar   
    23   45   12 1    
    24   14   13 ar   
    25   46   13 1    
    26   15   14 ar   
    27   17   14 1    
    28   16   15 ar   
    29   47   16 1    
    30   18   17 1    
    31   38   18 1    
    32   48   18 1    
    33   49   18 1    
    34   20   19 ar   
    35   24   19 ar   
    36   50   19 1    
    37   21   20 ar   
    38   22   21 ar   
    39   51   21 1    
    40   23   22 ar   
    41   52   22 1    
    42   24   23 ar   
    43   25   23 1    
    44   53   24 1    
    45   26   25 1    
    46   37   26 1    
    47   54   26 1    
    48   55   26 1    
    49   28   27 1    
    50   31   27 1    
    51   56   27 1    
    52   57   27 1    
    53   29   28 1    
    54   58   28 1    
    55   59   28 1    
    56   30   29 1    
    57   60   29 1    
    58   61   29 1    
    59   31   30 1    
    60   37   30 1    
    61   62   30 1    
    62   63   31 1    
    63   64   31 1    
    64   33   32 1    
    65   36   32 1    
    66   65   32 1    
    67   66   32 1    
    68   34   33 1    
    69   38   33 1    
    70   67   33 1    
    71   35   34 1    
    72   68   34 1    
    73   69   34 1    
    74   36   35 1    
    75   70   35 1    
    76   71   35 1    
    77   72   36 1    
    78   73   36 1    
    79   74   37 1    
    80   75   37 1    
    81   76   38 1    
    82   77   38 1    
    83   78   39 1    
@<TRIPOS>SUBSTRUCTURE
     1 BT3400      1 GROUP   
@<TRIPOS>SET

