#    Name: 1j1c_ADP_1_INTS_M
#    Modification time : Tue Mar 25 08:28:34 2014

@<TRIPOS>MOLECULE
1j1c_ADP_1_INTS_M
   47     0    15     0     0
SMALL
NO_CHARGES


@<TRIPOS>ATOM
      1 Zn         19.3910   11.6395  -12.8880 Zn        4 ZIC7        0.0000 
      2 Zn         18.4420   12.0360  -13.5180 Zn       14 ZIL7        0.0000 
      3 Zn         20.3400   11.2430  -12.2580 Zn        9 ZIP7        0.0000 
      4 NZ         15.3635   13.3440  -12.5120 N.4       3 LYC4        0.0000 
      5 NZ         16.0230   12.4590  -13.9800 N.4      13 LYL4        0.0000 
      6 NZ         14.7040   14.2290  -11.0440 N.4       8 LYP4        0.0000 
      7 NZ         16.0925   14.4850  -10.6625 N.4       3 LYC4        0.0000 
      8 NZ         17.4810   14.7410  -10.2810 N.4      13 LYL4        0.0000 
      9 N          16.0925   14.4850  -10.6625 N.am      2 SEC2        0.0000 
     10 N          17.4810   14.7410  -10.2810 N.am     12 SEL2        0.0000 
     11 N          14.7040   14.2290  -11.0440 N.am      7 SEP2        0.0000 
     12 Zn         19.7965   12.2620  -11.7920 Zn        4 ZIC7        0.0000 
     13 Zn         19.2530   13.2810  -11.3260 Zn       14 ZIL7        0.0000 
     14 CA         23.1775   16.1230   -8.3040 C.3       5 GLC5        0.0000 
     15 CA         22.9240   16.6770  -10.4500 C.3      15 GLL5        0.0000 
     16 CA         23.4310   15.5690   -6.1580 C.3      10 GLP5        0.0000 
     17 CA         20.5145   19.4265  -10.9945 C.3       5 GLC5        0.0000 
     18 CA         22.0860   17.9600  -10.6800 C.3      15 GLL5        0.0000 
     19 CA         18.9430   20.8930  -11.3090 C.3      10 GLP5        0.0000 
     20 CA         20.8975   21.1555   -4.7845 C.3       5 GLC5        0.0000 
     21 CA         20.5330   19.4340   -6.1510 C.3      15 GLL5        0.0000 
     22 CA         21.2620   22.8770   -3.4180 C.3      10 GLP5        0.0000 
     23 O          19.4845   20.1555   -4.1455 O.2       1 ALC1        0.0000 
     24 O          19.5990   19.3610   -5.1980 O.2      11 ALL1        0.0000 
     25 O          19.3700   20.9500   -3.0930 O.2       6 ALP1        0.0000 
     26 N          22.3340   20.7255   -4.6775 N.am      2 SEC2        0.0000 
     27 N          21.6170   20.2280   -5.9290 N.am     12 SEL2        0.0000 
     28 N          23.0510   21.2230   -3.4260 N.am      7 SEP2        0.0000 
     29 CA         22.2750   21.6005   -8.4940 C.3       5 GLC5        0.0000 
     30 CA         22.5920   20.3450   -6.8410 C.3      15 GLL5        0.0000 
     31 CA         21.9580   22.8560  -10.1470 C.3      10 GLP5        0.0000 
     32 CA         20.7420   21.3250   -7.0890 C.3       5 GLC5        0.0000 
     33 CA         18.8920   22.3050   -7.3370 C.3      10 GLP5        0.0000 
     34 CA         21.9270   21.6110   -5.1295 C.3       5 GLC5        0.0000 
     35 CA         23.4070   20.4230   -4.8855 C.3       5 GLC5        0.0000 
     36 CA         24.2220   20.5010   -2.9300 C.3      10 GLP5        0.0000 
     37 CA         21.7405   20.8625   -9.2590 C.3       5 GLC5        0.0000 
     38 CA         21.5230   18.8690   -8.3710 C.3      15 GLL5        0.0000 
     39 CA         20.2330   19.8810   -9.8400 C.3       5 GLC5        0.0000 
     40 CA         22.4770   17.2190   -7.2645 C.3       5 GLC5        0.0000 
     41 CA         19.4880   17.6545  -12.7822 C.3       5 GLC5        0.0000 
     42 CA         21.5400   16.3620  -12.3550 C.3      15 GLL5        0.0000 
     43 CA         18.1080   19.1980  -12.9470 C.3      10 GLP5        0.0000 
     44 CA         21.0953   17.7428   -5.6655 C.3       5 GLC5        0.0000 
     45 CA         21.7230   16.4180   -4.5500 C.3      10 GLP5        0.0000 
     46 CA         19.9436   20.6366   -7.4565 C.3       5 GLC5        0.0000 
     47 CA         20.4020   18.7010   -7.4110 C.3      15 GLL5        0.0000 
@<TRIPOS>BOND
@<TRIPOS>SUBSTRUCTURE
     1 ALC1       23 GROUP        1 X    ALC  0     ROOT ALC X 1
     2 SEC2        9 GROUP        1 X    SEC  0     **** SEC X 2
     3 LYC4        4 GROUP        1 X    LYC  0     **** LYC X 4
     4 ZIC7        1 GROUP        1 X    ZIC  0     **** ZIC X 5
     5 GLC5       14 GROUP        1 X    GLC  0     **** GLC X 6
     6 ALP1       25 GROUP        1 Y    ALP  0     ROOT ALP Y 8
     7 SEP2       11 GROUP        1 Y    SEP  0     **** SEP Y 9
     8 LYP4        6 GROUP        1 Y    LYP  0     **** LYP Y 11
     9 ZIP7        3 GROUP        1 Y    ZIP  0     **** ZIP Y 12
    10 GLP5       16 GROUP        1 Y    GLP  0     **** GLP Y 13
    11 ALL1       24 GROUP        1 Z    ALL  0     ROOT ALL Z 15
    12 SEL2       10 GROUP        1 Z    SEL  0     **** SEL Z 16
    13 LYL4        5 GROUP        1 Z    LYL  0     **** LYL Z 18
    14 ZIL7        2 GROUP        1 Z    ZIL  0     **** ZIL Z 19
    15 GLL5       15 GROUP        1 Z    GLL  0     **** GLL Z 20
@<TRIPOS>SET

