#    Name: 1j1c_ADP_1_ligand
#    Modification time : Tue Mar 25 08:28:34 2014

@<TRIPOS>MOLECULE
1j1c_ADP_1_ligand
   39    41     1     0     0
SMALL
NO_CHARGES


@<TRIPOS>ATOM
      1 PB         17.4080   13.1000  -13.9290 P.3       1 ADP430      0.0000 
      2 O1B        18.4420   12.0360  -13.5180 O.co2     1 ADP430      0.0000 
      3 O2B        17.7820   13.6460  -15.3170 O.co2     1 ADP430      0.0000 
      4 O3B        16.0230   12.4590  -13.9800 O.co2     1 ADP430      0.0000 
      5 PA         18.3430   14.4980  -11.5090 P.3       1 ADP430      0.0000 
      6 O1A        17.4810   14.7410  -10.2810 O.co2     1 ADP430      0.0000 
      7 O2A        19.2530   13.2810  -11.3260 O.co2     1 ADP430      0.0000 
      8 O3A        17.4170   14.3230  -12.8640 O.3       1 ADP430      0.0000 
      9 O5'        19.2490   15.7990  -11.7690 O.3       1 ADP430      0.0000 
     10 C5'        20.1960   15.8600  -12.8800 C.3       1 ADP430      0.0000 
     11 C4'        21.5400   16.3620  -12.3550 C.3       1 ADP430      0.0000 
     12 O4'        21.2860   17.7090  -11.8590 O.3       1 ADP430      0.0000 
     13 C3'        22.0980   15.5890  -11.1200 C.3       1 ADP430      0.0000 
     14 O3'        22.7520   14.3390  -11.3460 O.3       1 ADP430      0.0000 
     15 C2'        22.9240   16.6770  -10.4500 C.3       1 ADP430      0.0000 
     16 O2'        24.2650   16.7690  -10.9210 O.3       1 ADP430      0.0000 
     17 C1'        22.0860   17.9600  -10.6800 C.3       1 ADP430      0.0000 
     18 N9         21.2470   18.1220   -9.4600 N.pl3     1 ADP430      0.0000 
     19 C8         20.0080   17.5680   -9.0730 C.2       1 ADP430      0.0000 
     20 N7         19.4230   17.8500   -7.8690 N.2       1 ADP430      0.0000 
     21 C5         20.4020   18.7010   -7.4110 C.ar      1 ADP430      0.0000 
     22 C6         20.5330   19.4340   -6.1510 C.ar      1 ADP430      0.0000 
     23 N6         19.5990   19.3610   -5.1980 N.pl3     1 ADP430      0.0000 
     24 N1         21.6170   20.2280   -5.9290 N.ar      1 ADP430      0.0000 
     25 C2         22.5920   20.3450   -6.8410 C.ar      1 ADP430      0.0000 
     26 N3         22.6550   19.7620   -8.0220 N.ar      1 ADP430      0.0000 
     27 C4         21.5230   18.8690   -8.3710 C.ar      1 ADP430      0.0000 
     28 H          19.8509   16.5459  -13.6511 H         1 ADP430      0.0000 
     29 H          20.3455   14.8766  -13.3212 H         1 ADP430      0.0000 
     30 H          22.2608   16.3822  -13.1165 H         1 ADP430      0.0000 
     31 H          21.2001   15.4750  -10.4531 H         1 ADP430      0.0000 
     32 H          22.8719   16.4834   -9.3712 H         1 ADP430      0.0000 
     33 H          22.7508   18.7613  -10.7977 H         1 ADP430      0.0000 
     34 H          19.5344   16.9205   -9.7438 H         1 ADP430      0.0000 
     35 H          19.7912   19.8621   -4.3542 H         1 ADP430      0.0000 
     36 H          18.7917   18.8118   -5.4142 H         1 ADP430      0.0000 
     37 H          23.4284   21.0017   -6.5663 H         1 ADP430      0.0000 
     38 H          23.7271   14.5589  -11.3757 H         1 ADP430      0.0000 
     39 H          24.5221   15.8312  -11.1545 H         1 ADP430      0.0000 
@<TRIPOS>BOND
     1    2    1 ar   
     2    3    1 ar   
     3    4    1 ar   
     4    8    1 1    
     5    6    5 ar   
     6    7    5 ar   
     7    8    5 1    
     8    9    5 1    
     9   10    9 1    
    10   11   10 1    
    11   28   10 1    
    12   29   10 1    
    13   12   11 1    
    14   13   11 1    
    15   30   11 1    
    16   17   12 1    
    17   14   13 1    
    18   15   13 1    
    19   31   13 1    
    20   38   14 1    
    21   16   15 1    
    22   17   15 1    
    23   32   15 1    
    24   39   16 1    
    25   18   17 1    
    26   33   17 1    
    27   19   18 1    
    28   27   18 1    
    29   20   19 2    
    30   34   19 1    
    31   21   20 1    
    32   22   21 ar   
    33   27   21 ar   
    34   23   22 1    
    35   24   22 ar   
    36   35   23 1    
    37   36   23 1    
    38   25   24 ar   
    39   26   25 ar   
    40   37   25 1    
    41   27   26 ar   
@<TRIPOS>SUBSTRUCTURE
     1 ADP430      1 GROUP   
@<TRIPOS>SET

