#    Name: 4ft5_H2K_1_INTS_M
#    Modification time : Mon Mar 24 20:43:13 2014

@<TRIPOS>MOLECULE
4ft5_H2K_1_INTS_M
   60     0     9     0     0
SMALL
NO_CHARGES


@<TRIPOS>ATOM
      1 N           9.5240   -6.8820   13.9105 N.am      2 SEC2        0.0000 
      2 N          10.3060   -5.6030   13.5550 N.am      8 SEL2        0.0000 
      3 N           8.7420   -8.1610   14.2660 N.am      5 SEP2        0.0000 
      4 CA          9.7285   -6.5185   12.3785 C.3       3 GLC5        0.0000 
      5 CA         11.0530   -5.0080   12.9350 C.3       9 GLL5        0.0000 
      6 CA          8.4040   -8.0290   11.8220 C.3       6 GLP5        0.0000 
      7 CA         10.6055   -4.7100   14.8275 C.3       3 GLC5        0.0000 
      8 CA         10.1580   -4.4120   16.7200 C.3       6 GLP5        0.0000 
      9 CA         11.4115   -1.2515   11.5680 C.3       3 GLC5        0.0000 
     10 CA         11.8040   -3.0680   11.5520 C.3       9 GLL5        0.0000 
     11 CA         11.0190    0.5650   11.5840 C.3       6 GLP5        0.0000 
     12 CA         13.3960   -3.2830    8.6655 C.3       3 GLC5        0.0000 
     13 CA         13.8460   -3.2270   10.5070 C.3       9 GLL5        0.0000 
     14 CA         12.9460   -3.3390    6.8240 C.3       6 GLP5        0.0000 
     15 O          13.9905   -1.3610    8.9725 O.2       1 ALC1        0.0000 
     16 O          14.6970   -2.5450    9.6110 O.2       7 ALL1        0.0000 
     17 O          13.2840   -0.1770    8.3340 O.2       4 ALP1        0.0000 
     18 N          16.7320   -0.6440    8.0660 N.am      2 SEC2        0.0000 
     19 N          16.4880   -1.9620    8.3280 N.am      8 SEL2        0.0000 
     20 N          16.9760    0.6740    7.8040 N.am      5 SEP2        0.0000 
     21 CA         17.3855   -4.8405    7.8145 C.3       3 GLC5        0.0000 
     22 CA         17.9590   -4.2060    9.5620 C.3       9 GLL5        0.0000 
     23 CA         16.8120   -5.4750    6.0670 C.3       6 GLP5        0.0000 
     24 CA         16.9775   -3.0085   11.1180 C.3       3 GLC5        0.0000 
     25 CA         15.9960   -1.8110   12.6740 C.3       6 GLP5        0.0000 
     26 CA         20.3250   -4.6055    6.8390 C.3       3 GLC5        0.0000 
     27 CA         21.4060   -3.1620    7.8430 C.3       9 GLL5        0.0000 
     28 CA         19.2440   -6.0490    5.8350 C.3       6 GLP5        0.0000 
     29 CA         20.0685   -2.5555    6.3795 C.3       3 GLC5        0.0000 
     30 CA         18.7310   -1.9490    4.9160 C.3       6 GLP5        0.0000 
     31 CA         21.3280   -1.1570    7.2105 C.3       3 GLC5        0.0000 
     32 CA         21.2500    0.8480    6.5780 C.3       6 GLP5        0.0000 
     33 CA         21.7770   -2.4885    9.4875 C.3       3 GLC5        0.0000 
     34 CA         22.1480   -1.8150   11.1320 C.3       6 GLP5        0.0000 
     35 CA         18.2140   -3.9540   12.1055 C.3       3 GLC5        0.0000 
     36 CA         18.3700   -5.2940   10.3730 C.3       9 GLL5        0.0000 
     37 CA         18.0580   -2.6140   13.8380 C.3       6 GLP5        0.0000 
     38 CA         12.5877   -2.7123   13.5143 C.3       3 GLC5        0.0000 
     39 CA         12.0270   -4.3530   12.1490 C.3       9 GLL5        0.0000 
     40 CA         13.2600   -1.7140   15.1780 C.3       6 GLP5        0.0000 
     41 CA         13.9283   -5.4850    9.5895 C.3       3 GLC5        0.0000 
     42 CA         13.8970   -7.1180    8.3650 C.3       6 GLP5        0.0000 
     43 CA         14.9778   -2.8315   11.7440 C.3       3 GLC5        0.0000 
     44 CA         14.0730   -4.4770   11.1210 C.3       9 GLL5        0.0000 
     45 CA         10.0300   -3.9326   11.0845 C.3       3 GLC5        0.0000 
     46 CA          8.3880   -3.9910   10.1220 C.3       6 GLP5        0.0000 
     47 CA         18.3687   -6.5065    8.8025 C.3       3 GLC5        0.0000 
     48 CA         19.6850   -5.7320   10.3410 C.3       9 GLL5        0.0000 
     49 CA         17.7100   -7.5000    7.2480 C.3       6 GLP5        0.0000 
     50 CA         19.6661   -5.2396    7.5021 C.3       3 GLC5        0.0000 
     51 CA         20.6120   -5.0780    9.5570 C.3       9 GLL5        0.0000 
     52 CA         21.1181   -3.1226   10.1506 C.3       3 GLC5        0.0000 
     53 CA         20.2210   -4.0020    8.7910 C.3       9 GLL5        0.0000 
     54 CA         19.1088   -5.6665   13.8315 C.3       3 GLC5        0.0000 
     55 CA         17.8490   -6.4500   12.4370 C.3       9 GLL5        0.0000 
     56 CA         20.9040   -5.0170   14.6790 C.3       6 GLP5        0.0000 
     57 CA         17.6857   -4.4650   13.4110 C.3       3 GLC5        0.0000 
     58 CA         17.2912   -9.5953   11.4537 C.3       3 GLC5        0.0000 
     59 CA         17.8810   -7.9550   12.2380 C.3       9 GLL5        0.0000 
     60 CA         17.2100  -10.9510   10.1700 C.3       6 GLP5        0.0000 
@<TRIPOS>BOND
@<TRIPOS>SUBSTRUCTURE
     1 ALC1       15 GROUP        1 X    ALC  0     ROOT ALC X 1
     2 SEC2        1 GROUP        1 X    SEC  0     **** SEC X 2
     3 GLC5        4 GROUP        1 X    GLC  0     **** GLC X 6
     4 ALP1       17 GROUP        1 Y    ALP  0     ROOT ALP Y 8
     5 SEP2        3 GROUP        1 Y    SEP  0     **** SEP Y 9
     6 GLP5        6 GROUP        1 Y    GLP  0     **** GLP Y 13
     7 ALL1       16 GROUP        1 Z    ALL  0     ROOT ALL Z 15
     8 SEL2        2 GROUP        1 Z    SEL  0     **** SEL Z 16
     9 GLL5        5 GROUP        1 Z    GLL  0     **** GLL Z 20
@<TRIPOS>SET

