#    Name: 4ft5_H2K_1_ligand
#    Modification time : Mon Mar 24 20:43:13 2014

@<TRIPOS>MOLECULE
4ft5_H2K_1_ligand
   39    41     1     0     0
SMALL
NO_CHARGES


@<TRIPOS>ATOM
      1 N6         10.3060   -5.6030   13.5550 N.1       1 H2K300      0.0000 
      2 C15        11.0530   -5.0080   12.9350 C.1       1 H2K300      0.0000 
      3 C13        12.0270   -4.3530   12.1490 C.ar      1 H2K300      0.0000 
      4 N4         13.1620   -5.0350   11.9260 N.ar      1 H2K300      0.0000 
      5 C12        14.0730   -4.4770   11.1210 C.ar      1 H2K300      0.0000 
      6 C14        11.8040   -3.0680   11.5520 C.ar      1 H2K300      0.0000 
      7 N5         12.7240   -2.5200   10.7430 N.ar      1 H2K300      0.0000 
      8 C11        13.8460   -3.2270   10.5070 C.ar      1 H2K300      0.0000 
      9 N3         14.6970   -2.5450    9.6110 N.am      1 H2K300      0.0000 
     10 C10        15.9570   -2.7590    9.0970 C.2       1 H2K300      0.0000 
     11 O2         16.4880   -1.9620    8.3280 O.2       1 H2K300      0.0000 
     12 N2         16.5610   -3.9270    9.5030 N.am      1 H2K300      0.0000 
     13 C9         17.9590   -4.2060    9.5620 C.ar      1 H2K300      0.0000 
     14 C16        18.9080   -3.5630    8.7720 C.ar      1 H2K300      0.0000 
     15 C1         20.2210   -4.0020    8.7910 C.ar      1 H2K300      0.0000 
     16 CL         21.4060   -3.1620    7.8430 Cl        1 H2K300      0.0000 
     17 C4         18.3700   -5.2940   10.3730 C.ar      1 H2K300      0.0000 
     18 C3         19.6850   -5.7320   10.3410 C.ar      1 H2K300      0.0000 
     19 C2         20.6120   -5.0780    9.5570 C.ar      1 H2K300      0.0000 
     20 O1         17.4100   -5.8570   11.1890 O.3       1 H2K300      0.0000 
     21 C5         17.8490   -6.4500   12.4370 C.3       1 H2K300      0.0000 
     22 C8         16.7780   -6.1820   13.5310 C.3       1 H2K300      0.0000 
     23 N1         15.9640   -7.4060   13.5420 N.4       1 H2K300      0.0000 
     24 C7         16.8640   -8.5240   13.2370 C.3       1 H2K300      0.0000 
     25 C6         17.8810   -7.9550   12.2380 C.3       1 H2K300      0.0000 
     26 H          14.9819   -4.9514   10.9226 H         1 H2K300      0.0000 
     27 H          10.9125   -2.5915   11.7724 H         1 H2K300      0.0000 
     28 H          14.2162   -1.5863    9.2248 H         1 H2K300      0.0000 
     29 H          15.9200   -4.7358    9.8162 H         1 H2K300      0.0000 
     30 H          18.6333   -2.7707    8.1818 H         1 H2K300      0.0000 
     31 H          19.9669   -6.5480   10.9052 H         1 H2K300      0.0000 
     32 H          21.5929   -5.3935    9.5447 H         1 H2K300      0.0000 
     33 H          18.7717   -6.1081   12.7603 H         1 H2K300      0.0000 
     34 H          16.2066   -5.3321   13.2368 H         1 H2K300      0.0000 
     35 H          17.2797   -6.0347   14.4595 H         1 H2K300      0.0000 
     36 H          16.3387   -9.3314   12.7677 H         1 H2K300      0.0000 
     37 H          17.3899   -8.8517   14.1111 H         1 H2K300      0.0000 
     38 H          18.8523   -8.3338   12.4669 H         1 H2K300      0.0000 
     39 H          17.5764   -8.1994   11.2446 H         1 H2K300      0.0000 
@<TRIPOS>BOND
     1    2    1 3    
     2    3    2 1    
     3    4    3 ar   
     4    6    3 ar   
     5    5    4 ar   
     6    8    5 ar   
     7   26    5 1    
     8    7    6 ar   
     9   27    6 1    
    10    8    7 ar   
    11    9    8 1    
    12   10    9 am   
    13   28    9 1    
    14   11   10 2    
    15   12   10 am   
    16   13   12 1    
    17   29   12 1    
    18   14   13 ar   
    19   17   13 ar   
    20   15   14 ar   
    21   30   14 1    
    22   16   15 1    
    23   19   15 ar   
    24   18   17 ar   
    25   20   17 1    
    26   19   18 ar   
    27   31   18 1    
    28   32   19 1    
    29   21   20 1    
    30   22   21 1    
    31   25   21 1    
    32   33   21 1    
    33   23   22 1    
    34   34   22 1    
    35   35   22 1    
    36   24   23 1    
    37   25   24 1    
    38   36   24 1    
    39   37   24 1    
    40   38   25 1    
    41   39   25 1    
@<TRIPOS>SUBSTRUCTURE
     1 H2K300      1 GROUP   
@<TRIPOS>SET

