#    Name: 1szm_BI4_1_INTS_M
#    Modification time : Tue Mar 25 04:02:25 2014

@<TRIPOS>MOLECULE
1szm_BI4_1_INTS_M
   66     0    12     0     0
SMALL
NO_CHARGES


@<TRIPOS>ATOM
      1 N          47.8180   38.8125   42.7035 N.am      2 SEC2        0.0000 
      2 N          48.3440   39.2310   43.9710 N.am     10 SEL2        0.0000 
      3 N          47.2920   38.3940   41.4360 N.am      6 SEP2        0.0000 
      4 CA         49.0520   38.2785   52.4310 C.3       4 GLC5        0.0000 
      5 CA         49.6250   37.4770   50.7580 C.3      12 GLL5        0.0000 
      6 CA         48.4790   39.0800   54.1040 C.3       8 GLP5        0.0000 
      7 O          49.9795   40.5400   42.2930 O.2       1 ALC1        0.0000 
      8 O          50.4970   39.8680   43.3690 O.2       9 ALL1        0.0000 
      9 O          49.4620   41.2120   41.2170 O.2       5 ALP1        0.0000 
     10 N          53.8815   39.1910   43.8620 N.am      2 SEC2        0.0000 
     11 N          52.8100   40.1270   43.5370 N.am     10 SEL2        0.0000 
     12 N          54.9530   38.2550   44.1870 N.am      6 SEP2        0.0000 
     13 CA         54.4685   38.2015   45.0495 C.3       4 GLC5        0.0000 
     14 CA         53.8150   39.3620   46.6630 C.3      12 GLL5        0.0000 
     15 CA         55.1220   37.0410   43.4360 C.3       8 GLP5        0.0000 
     16 CA         54.7710   37.1860   45.8920 C.3       4 GLC5        0.0000 
     17 CA         54.6140   38.4480   47.3360 C.3      12 GLL5        0.0000 
     18 CA         54.9280   35.9240   44.4480 C.3       8 GLP5        0.0000 
     19 CA         57.6015   39.2440   46.6315 C.3       4 GLC5        0.0000 
     20 CA         56.2760   40.1170   47.7660 C.3      12 GLL5        0.0000 
     21 CA         58.9270   38.3710   45.4970 C.3       8 GLP5        0.0000 
     22 CA         55.7195   42.9875   47.9170 C.3       4 GLC5        0.0000 
     23 CA         55.4680   41.0620   47.0890 C.3      12 GLL5        0.0000 
     24 CA         55.9710   44.9130   48.7450 C.3       8 GLP5        0.0000 
     25 CA         52.6980   35.6185   46.6895 C.3       4 GLC5        0.0000 
     26 CA         54.4350   35.9360   47.9350 C.3      12 GLL5        0.0000 
     27 CA         50.9610   35.3010   45.4440 C.3       8 GLP5        0.0000 
     28 CA         54.6815   35.9300   46.1915 C.3       4 GLC5        0.0000 
     29 CA         51.7345   32.3595   47.9340 C.3       4 GLC5        0.0000 
     30 CA         51.9680   34.2280   48.8180 C.3      12 GLL5        0.0000 
     31 CA         51.5010   30.4910   47.0500 C.3       8 GLP5        0.0000 
     32 OD1        53.6260   33.6145   51.5360 O.co2     3 ASC3        0.0000 
     33 OD1        52.6130   34.5400   51.1430 O.co2    11 ASL3        0.0000 
     34 OD1        54.6390   32.6890   51.9290 O.co2     7 ASP3        0.0000 
     35 O          53.6260   33.6145   51.5360 O.2       1 ALC1        0.0000 
     36 O          52.6130   34.5400   51.1430 O.2       9 ALL1        0.0000 
     37 O          54.6390   32.6890   51.9290 O.2       5 ALP1        0.0000 
     38 CA         53.2480   36.9110   52.8960 C.3       4 GLC5        0.0000 
     39 CA         52.8760   35.7190   52.0040 C.3      12 GLL5        0.0000 
     40 CA         53.6200   38.1030   53.7880 C.3       8 GLP5        0.0000 
     41 CA         49.8235   40.6412   45.2763 C.3       4 GLC5        0.0000 
     42 CA         51.5480   39.0500   45.3150 C.3      12 GLL5        0.0000 
     43 CA         48.7730   42.3720   45.1670 C.3       8 GLP5        0.0000 
     44 CA         50.0688   36.4802   46.8595 C.3       4 GLC5        0.0000 
     45 CA         49.6990   38.0210   47.9770 C.3      12 GLL5        0.0000 
     46 CA         51.2198   40.2330   49.9740 C.3       4 GLC5        0.0000 
     47 CA         50.7370   38.4940   48.8320 C.3      12 GLL5        0.0000 
     48 CA         51.7250   42.1110   50.4310 C.3       8 GLP5        0.0000 
     49 CA         47.5738   38.4995   49.8949 C.3       4 GLC5        0.0000 
     50 CA         46.2680   39.7280   50.3270 C.3       8 GLP5        0.0000 
     51 CA         47.5427   39.1983   47.4304 C.3       4 GLC5        0.0000 
     52 CA         48.2550   37.4190   46.3450 C.3      12 GLL5        0.0000 
     53 CA         46.1710   40.6580   48.0590 C.3       8 GLP5        0.0000 
     54 CA         50.0004   36.6135   45.8077 C.3       4 GLC5        0.0000 
     55 CA         53.8120   36.9705   45.4423 C.3       4 GLC5        0.0000 
     56 CA         52.7580   37.3660   46.6510 C.3      12 GLL5        0.0000 
     57 CA         51.6927   36.7067   45.8269 C.3       4 GLC5        0.0000 
     58 CA         57.0500   38.0063   47.1460 C.3       4 GLC5        0.0000 
     59 CA         58.8690   37.3910   46.6730 C.3       8 GLP5        0.0000 
     60 CA         56.5365   39.6525   49.7915 C.3       4 GLC5        0.0000 
     61 CA         55.8480   38.7950   47.9020 C.3      12 GLL5        0.0000 
     62 CA         57.0110   39.8490   51.7490 C.3       8 GLP5        0.0000 
     63 CA         53.5872   32.8340   49.6433 C.3       4 GLC5        0.0000 
     64 CA         53.1370   34.6060   49.7490 C.3      12 GLL5        0.0000 
     65 CA         54.6220   31.2510   50.0030 C.3       8 GLP5        0.0000 
     66 CA         51.1505   34.7520   47.3505 C.3       4 GLC5        0.0000 
@<TRIPOS>BOND
@<TRIPOS>SUBSTRUCTURE
     1 ALC1        7 GROUP        1 X    ALC  0     ROOT ALC X 1
     2 SEC2        1 GROUP        1 X    SEC  0     **** SEC X 2
     3 ASC3       32 GROUP        1 X    ASC  0     **** ASC X 3
     4 GLC5        4 GROUP        1 X    GLC  0     **** GLC X 6
     5 ALP1        9 GROUP        1 Y    ALP  0     ROOT ALP Y 8
     6 SEP2        3 GROUP        1 Y    SEP  0     **** SEP Y 9
     7 ASP3       34 GROUP        1 Y    ASP  0     **** ASP Y 10
     8 GLP5        6 GROUP        1 Y    GLP  0     **** GLP Y 13
     9 ALL1        8 GROUP        1 Z    ALL  0     ROOT ALL Z 15
    10 SEL2        2 GROUP        1 Z    SEL  0     **** SEL Z 16
    11 ASL3       33 GROUP        1 Z    ASL  0     **** ASL Z 17
    12 GLL5        5 GROUP        1 Z    GLL  0     **** GLL Z 20
@<TRIPOS>SET

