#    Name: 1szm_BI4_1_ligand
#    Modification time : Tue Mar 25 04:02:25 2014

@<TRIPOS>MOLECULE
1szm_BI4_1_ligand
   60    65     1     0     0
SMALL
NO_CHARGES


@<TRIPOS>ATOM
      1 O32        48.3440   39.2310   43.9710 O.2       1 BI4351      0.0000 
      2 C18        49.5440   39.2690   44.2510 C.2       1 BI4351      0.0000 
      3 C17        50.2000   38.7710   45.4560 C.2       1 BI4351      0.0000 
      4 C16        49.4490   38.0950   46.5400 C.2       1 BI4351      0.0000 
      5 C15        49.6990   38.0210   47.9770 C.ar      1 BI4351      0.0000 
      6 C14        50.7370   38.4940   48.8320 C.ar      1 BI4351      0.0000 
      7 C13        50.6920   38.2160   50.2020 C.ar      1 BI4351      0.0000 
      8 C12        49.6250   37.4770   50.7580 C.ar      1 BI4351      0.0000 
      9 C10        48.6540   37.2980   48.5730 C.ar      1 BI4351      0.0000 
     10 C11        48.5850   37.0110   49.9470 C.ar      1 BI4351      0.0000 
     11 N9         47.7350   36.9300   47.5740 N.pl3     1 BI4351      0.0000 
     12 C8         48.2550   37.4190   46.3450 C.2       1 BI4351      0.0000 
     13 N19        50.4970   39.8680   43.3690 N.am      1 BI4351      0.0000 
     14 C20        51.7510   39.7230   44.0330 C.2       1 BI4351      0.0000 
     15 O33        52.8100   40.1270   43.5370 O.2       1 BI4351      0.0000 
     16 C21        51.5480   39.0500   45.3150 C.2       1 BI4351      0.0000 
     17 C22        52.6340   38.6680   46.2220 C.2       1 BI4351      0.0000 
     18 C7         52.7580   37.3660   46.6510 C.2       1 BI4351      0.0000 
     19 C23        53.8150   39.3620   46.6630 C.ar      1 BI4351      0.0000 
     20 C5         54.6140   38.4480   47.3360 C.ar      1 BI4351      0.0000 
     21 C4         55.8480   38.7950   47.9020 C.ar      1 BI4351      0.0000 
     22 C3         56.2760   40.1170   47.7660 C.ar      1 BI4351      0.0000 
     23 C2         55.4680   41.0620   47.0890 C.ar      1 BI4351      0.0000 
     24 C1         54.2580   40.6860   46.5490 C.ar      1 BI4351      0.0000 
     25 N6         53.9720   37.1860   47.3260 N.pl3     1 BI4351      0.0000 
     26 C24        54.4350   35.9360   47.9350 C.3       1 BI4351      0.0000 
     27 C25        53.8400   35.9220   49.3600 C.3       1 BI4351      0.0000 
     28 C26        53.1370   34.6060   49.7490 C.3       1 BI4351      0.0000 
     29 C27        51.9680   34.2280   48.8180 C.3       1 BI4351      0.0000 
     30 C28        50.7120   34.1780   49.6960 C.3       1 BI4351      0.0000 
     31 C29        51.2060   34.0390   51.1440 C.3       1 BI4351      0.0000 
     32 N30        52.6130   34.5400   51.1430 N.4       1 BI4351      0.0000 
     33 C31        52.8760   35.7190   52.0040 C.3       1 BI4351      0.0000 
     34 H          51.5061   39.0333   48.4337 H         1 BI4351      0.0000 
     35 H          51.4450   38.5525   50.8189 H         1 BI4351      0.0000 
     36 H          49.6178   37.2831   51.7666 H         1 BI4351      0.0000 
     37 H          47.8139   36.4888   50.3305 H         1 BI4351      0.0000 
     38 H          46.9423   36.4602   47.6862 H         1 BI4351      0.0000 
     39 H          47.8193   37.2875   45.4961 H         1 BI4351      0.0000 
     40 H          50.3362   40.2565   42.5606 H         1 BI4351      0.0000 
     41 H          52.1087   36.6669   46.5131 H         1 BI4351      0.0000 
     42 H          56.4067   38.1108   48.3909 H         1 BI4351      0.0000 
     43 H          57.1770   40.4129   48.1546 H         1 BI4351      0.0000 
     44 H          55.8020   42.0325   47.0088 H         1 BI4351      0.0000 
     45 H          53.6686   41.3737   46.0572 H         1 BI4351      0.0000 
     46 H          55.5048   35.9103   48.0162 H         1 BI4351      0.0000 
     47 H          54.0635   35.0793   47.4062 H         1 BI4351      0.0000 
     48 H          53.1181   36.7497   49.4494 H         1 BI4351      0.0000 
     49 H          54.6485   36.1193   50.0822 H         1 BI4351      0.0000 
     50 H          53.8814   33.7794   49.6368 H         1 BI4351      0.0000 
     51 H          52.1499   33.2643   48.3937 H         1 BI4351      0.0000 
     52 H          51.8540   34.9808   48.0682 H         1 BI4351      0.0000 
     53 H          50.1252   33.3243   49.4354 H         1 BI4351      0.0000 
     54 H          50.1641   35.0890   49.5915 H         1 BI4351      0.0000 
     55 H          51.1725   33.0060   51.4251 H         1 BI4351      0.0000 
     56 H          50.5904   34.6415   51.7807 H         1 BI4351      0.0000 
     57 H          53.2178   33.6616   51.6279 H         1 BI4351      0.0000 
     58 H          53.8556   35.8863   52.1156 H         1 BI4351      0.0000 
     59 H          52.4777   36.5534   51.6230 H         1 BI4351      0.0000 
     60 H          52.4923   35.6029   52.9201 H         1 BI4351      0.0000 
@<TRIPOS>BOND
     1    2    1 2    
     2    3    2 1    
     3   13    2 am   
     4    4    3 1    
     5   16    3 2    
     6    5    4 1    
     7   12    4 2    
     8    6    5 ar   
     9    9    5 ar   
    10    7    6 ar   
    11   34    6 1    
    12    8    7 ar   
    13   35    7 1    
    14   10    8 ar   
    15   36    8 1    
    16   10    9 ar   
    17   11    9 1    
    18   37   10 1    
    19   12   11 1    
    20   38   11 1    
    21   39   12 1    
    22   14   13 am   
    23   40   13 1    
    24   15   14 2    
    25   16   14 1    
    26   17   16 1    
    27   18   17 2    
    28   19   17 1    
    29   25   18 1    
    30   41   18 1    
    31   20   19 ar   
    32   24   19 ar   
    33   21   20 ar   
    34   25   20 1    
    35   22   21 ar   
    36   42   21 1    
    37   23   22 ar   
    38   43   22 1    
    39   24   23 ar   
    40   44   23 1    
    41   45   24 1    
    42   26   25 1    
    43   27   26 1    
    44   46   26 1    
    45   47   26 1    
    46   28   27 1    
    47   48   27 1    
    48   49   27 1    
    49   29   28 1    
    50   32   28 1    
    51   50   28 1    
    52   30   29 1    
    53   51   29 1    
    54   52   29 1    
    55   31   30 1    
    56   53   30 1    
    57   54   30 1    
    58   32   31 1    
    59   55   31 1    
    60   56   31 1    
    61   33   32 1    
    62   57   32 1    
    63   58   33 1    
    64   59   33 1    
    65   60   33 1    
@<TRIPOS>SUBSTRUCTURE
     1 BI4351      1 GROUP   
@<TRIPOS>SET

