#    Name: 3lfq_A28_1_INTS_M
#    Modification time : Mon Mar 24 21:36:47 2014

@<TRIPOS>MOLECULE
3lfq_A28_1_INTS_M
   58     0     9     0     0
SMALL
NO_CHARGES


@<TRIPOS>ATOM
      1 O          41.2375  -11.7090   20.5610 O.2       1 ALC1        0.0000 
      2 O          41.4720  -11.2960   21.9250 O.2       7 ALL1        0.0000 
      3 O          41.0030  -12.1220   19.1970 O.2       4 ALP1        0.0000 
      4 N          43.6025  -12.3835   21.5660 N.am      2 SEC2        0.0000 
      5 N          42.4090  -11.8330   22.5270 N.am      8 SEL2        0.0000 
      6 N          44.7960  -12.9340   20.6050 N.am      5 SEP2        0.0000 
      7 CA         41.5825   -4.9460   25.7400 C.3       3 GLC5        0.0000 
      8 CA         40.6430   -6.7990   26.1840 C.3       9 GLL5        0.0000 
      9 CA         42.5220   -3.0930   25.2960 C.3       6 GLP5        0.0000 
     10 CA         42.5700   -7.0675   25.1135 C.3       3 GLC5        0.0000 
     11 CA         44.4970   -7.3360   24.0430 C.3       6 GLP5        0.0000 
     12 CA         37.0300   -9.0880   22.2990 C.3       3 GLC5        0.0000 
     13 CA         38.2980   -7.8740   23.2310 C.3       9 GLL5        0.0000 
     14 CA         35.7620  -10.3020   21.3670 C.3       6 GLP5        0.0000 
     15 CA         39.1480  -11.6195   21.9465 C.3       3 GLC5        0.0000 
     16 CA         39.0820   -9.6200   21.3310 C.3       9 GLL5        0.0000 
     17 CA         39.2140  -13.6190   22.5620 C.3       6 GLP5        0.0000 
     18 O          44.7335  -12.1500   23.8130 O.2       1 ALC1        0.0000 
     19 O          43.5430  -11.6510   24.5640 O.2       7 ALL1        0.0000 
     20 O          45.9240  -12.6490   23.0620 O.2       4 ALP1        0.0000 
     21 CA         43.1110  -13.2810   26.4700 C.3       3 GLC5        0.0000 
     22 CA         44.8740  -12.0750   26.5480 C.3       9 GLL5        0.0000 
     23 CA         41.3480  -14.4870   26.3920 C.3       6 GLP5        0.0000 
     24 CA         46.2980   -8.7660   26.8250 C.3       3 GLC5        0.0000 
     25 CA         45.7870  -10.8650   26.7400 C.3       9 GLL5        0.0000 
     26 CA         46.8090   -6.6670   26.9100 C.3       6 GLP5        0.0000 
     27 CA         39.3360  -10.6390   25.6930 C.3       3 GLC5        0.0000 
     28 CA         41.1350   -9.4560   24.9210 C.3       9 GLL5        0.0000 
     29 CA         38.0970  -12.2380   26.5630 C.3       6 GLP5        0.0000 
     30 CA         41.5040   -8.4268   23.0640 C.3       3 GLC5        0.0000 
     31 CA         40.0150   -8.6240   24.7250 C.3       9 GLL5        0.0000 
     32 CA         43.3290   -8.2010   22.0190 C.3       6 GLP5        0.0000 
     33 CA         39.8882   -9.1492   20.1273 C.3       3 GLC5        0.0000 
     34 CA         39.7550   -9.5730   22.4960 C.3       9 GLL5        0.0000 
     35 CA         40.3580   -8.7020   18.3410 C.3       6 GLP5        0.0000 
     36 CA         38.3732  -10.4773   20.8002 C.3       3 GLC5        0.0000 
     37 CA         37.3280  -11.3580   19.6870 C.3       6 GLP5        0.0000 
     38 CA         41.8125   -9.0998   22.3125 C.3       3 GLC5        0.0000 
     39 CA         42.3272   -9.0598   23.2225 C.3       3 GLC5        0.0000 
     40 CA         40.0600  -11.9044   22.9153 C.3       3 GLC5        0.0000 
     41 CA         41.5160  -10.3810   23.9310 C.3       9 GLL5        0.0000 
     42 CA         40.3953   -6.3053   23.9450 C.3       3 GLC5        0.0000 
     43 CA         39.6580   -7.6480   25.6740 C.3       9 GLL5        0.0000 
     44 CA         40.6400   -5.3870   21.9610 C.3       6 GLP5        0.0000 
     45 CA         37.4800   -8.7290   27.1870 C.3       3 GLC5        0.0000 
     46 CA         38.3290   -7.4460   26.0740 C.3       9 GLL5        0.0000 
     47 CA         36.7910  -10.5110   27.8370 C.3       6 GLP5        0.0000 
     48 CA         36.2060   -7.3075   26.3200 C.3       3 GLC5        0.0000 
     49 CA         34.2430   -7.6680   26.1030 C.3       6 GLP5        0.0000 
     50 CA         37.2223   -6.3403   28.7788 C.3       3 GLC5        0.0000 
     51 CA         38.0090   -6.4480   27.0000 C.3       9 GLL5        0.0000 
     52 CA         35.9360   -6.6430   30.2950 C.3       6 GLP5        0.0000 
     53 CA         40.3790   -4.1065   26.2595 C.3       3 GLC5        0.0000 
     54 CA         39.0080   -5.6270   27.5250 C.3       9 GLL5        0.0000 
     55 CA         41.0890   -2.4960   25.1980 C.3       6 GLP5        0.0000 
     56 CA         39.8238   -6.9402   22.6139 C.3       3 GLC5        0.0000 
     57 CA         47.8375  -10.7225   26.3015 C.3       3 GLC5        0.0000 
     58 CA         49.3830  -10.4490   25.3050 C.3       6 GLP5        0.0000 
@<TRIPOS>BOND
@<TRIPOS>SUBSTRUCTURE
     1 ALC1        1 GROUP        1 X    ALC  0     ROOT ALC X 1
     2 SEC2        4 GROUP        1 X    SEC  0     **** SEC X 2
     3 GLC5        7 GROUP        1 X    GLC  0     **** GLC X 6
     4 ALP1        3 GROUP        1 Y    ALP  0     ROOT ALP Y 8
     5 SEP2        6 GROUP        1 Y    SEP  0     **** SEP Y 9
     6 GLP5        9 GROUP        1 Y    GLP  0     **** GLP Y 13
     7 ALL1        2 GROUP        1 Z    ALL  0     ROOT ALL Z 15
     8 SEL2        5 GROUP        1 Z    SEL  0     **** SEL Z 16
     9 GLL5        8 GROUP        1 Z    GLL  0     **** GLL Z 20
@<TRIPOS>SET

