#    Name: 3lfq_A28_1_ligand
#    Modification time : Mon Mar 24 21:36:47 2014

@<TRIPOS>MOLECULE
3lfq_A28_1_ligand
   38    40     1     0     0
SMALL
NO_CHARGES


@<TRIPOS>ATOM
      1 C1         40.0150   -8.6240   24.7250 C.ar      1 A28299      0.0000 
      2 C2         39.3430   -8.6810   23.4930 C.ar      1 A28299      0.0000 
      3 C3         39.7550   -9.5730   22.4960 C.ar      1 A28299      0.0000 
      4 C4         41.1350   -9.4560   24.9210 C.ar      1 A28299      0.0000 
      5 N5         41.4720  -11.2960   21.9250 N.pl3     1 A28299      0.0000 
      6 N6         42.4090  -11.8330   22.5270 N.2       1 A28299      0.0000 
      7 C7         42.5160  -11.3370   23.7590 C.2       1 A28299      0.0000 
      8 C8         41.5160  -10.3810   23.9310 C.ar      1 A28299      0.0000 
      9 C9         40.8370  -10.4240   22.7160 C.ar      1 A28299      0.0000 
     10 C10        39.6580   -7.6480   25.6740 C.ar      1 A28299      0.0000 
     11 C11        38.3290   -7.4460   26.0740 C.ar      1 A28299      0.0000 
     12 C12        38.0090   -6.4480   27.0000 C.ar      1 A28299      0.0000 
     13 C13        39.0080   -5.6270   27.5250 C.ar      1 A28299      0.0000 
     14 C14        40.3300   -5.8070   27.1170 C.ar      1 A28299      0.0000 
     15 C15        40.6430   -6.7990   26.1840 C.ar      1 A28299      0.0000 
     16 F16        38.2980   -7.8740   23.2310 F         1 A28299      0.0000 
     17 F17        39.0820   -9.6200   21.3310 F         1 A28299      0.0000 
     18 N18        43.5430  -11.6510   24.5640 N.am      1 A28299      0.0000 
     19 C19        43.5400  -11.6610   25.9090 C.2       1 A28299      0.0000 
     20 C20        44.8740  -12.0750   26.5480 C.3       1 A28299      0.0000 
     21 O21        42.5840  -11.3850   26.6290 O.2       1 A28299      0.0000 
     22 C22        45.7870  -10.8650   26.7400 C.3       1 A28299      0.0000 
     23 C23        46.7970  -11.1270   27.8560 C.3       1 A28299      0.0000 
     24 H          41.6749   -9.3868   25.7895 H         1 A28299      0.0000 
     25 H          41.1816  -11.4530   20.9750 H         1 A28299      0.0000 
     26 H          37.5844   -8.0380   25.6819 H         1 A28299      0.0000 
     27 H          37.0321   -6.3195   27.2948 H         1 A28299      0.0000 
     28 H          38.7725   -4.8987   28.2039 H         1 A28299      0.0000 
     29 H          41.0724   -5.2120   27.5011 H         1 A28299      0.0000 
     30 H          41.6212   -6.9063   25.8656 H         1 A28299      0.0000 
     31 H          44.4795  -11.9274   24.0771 H         1 A28299      0.0000 
     32 H          45.3668  -12.8005   25.9034 H         1 A28299      0.0000 
     33 H          44.6773  -12.5359   27.5142 H         1 A28299      0.0000 
     34 H          45.1841   -9.9973   26.9975 H         1 A28299      0.0000 
     35 H          46.3195  -10.6661   25.8129 H         1 A28299      0.0000 
     36 H          47.3765  -11.9167   27.6546 H         1 A28299      0.0000 
     37 H          47.4050  -10.3458   27.9976 H         1 A28299      0.0000 
     38 H          46.3461  -11.3096   28.7297 H         1 A28299      0.0000 
@<TRIPOS>BOND
     1    2    1 ar   
     2    4    1 ar   
     3   10    1 1    
     4    3    2 ar   
     5   16    2 1    
     6    9    3 ar   
     7   17    3 1    
     8    8    4 ar   
     9   24    4 1    
    10    6    5 1    
    11    9    5 1    
    12   25    5 1    
    13    7    6 2    
    14    8    7 1    
    15   18    7 1    
    16    9    8 ar   
    17   11   10 ar   
    18   15   10 ar   
    19   12   11 ar   
    20   26   11 1    
    21   13   12 ar   
    22   27   12 1    
    23   14   13 ar   
    24   28   13 1    
    25   15   14 ar   
    26   29   14 1    
    27   30   15 1    
    28   19   18 am   
    29   31   18 1    
    30   20   19 1    
    31   21   19 2    
    32   22   20 1    
    33   32   20 1    
    34   33   20 1    
    35   23   22 1    
    36   34   22 1    
    37   35   22 1    
    38   36   23 1    
    39   37   23 1    
    40   38   23 1    
@<TRIPOS>SUBSTRUCTURE
     1 A28299      1 GROUP   
@<TRIPOS>SET

