#    Name: 2jj8_AZZ_1_INTS_M
#    Modification time : Tue Mar 25 20:56:35 2014

@<TRIPOS>MOLECULE
2jj8_AZZ_1_INTS_M
   43     0     9     0     0
SMALL
NO_CHARGES


@<TRIPOS>ATOM
      1 O          24.5675   13.7495   -6.4650 O.2       1 ALC1        0.0000 
      2 O          24.0000   13.9040   -7.7100 O.2       7 ALL1        0.0000 
      3 O          25.1350   13.5950   -5.2200 O.2       4 ALP1        0.0000 
      4 CA         26.2180   12.0370   -8.6715 C.3       3 GLC5        0.0000 
      5 CA         24.6710   13.2130   -8.7790 C.3       9 GLL5        0.0000 
      6 CA         27.7650   10.8610   -8.5640 C.3       6 GLP5        0.0000 
      7 CA         23.8410   10.9005  -10.9235 C.3       3 GLC5        0.0000 
      8 CA         23.6090   12.7430   -9.7640 C.3       9 GLL5        0.0000 
      9 CA         24.0730    9.0580  -12.0830 C.3       6 GLP5        0.0000 
     10 CA         22.8035   10.8100   -7.9990 C.3       3 GLC5        0.0000 
     11 CA         21.4250   11.9140   -9.3340 C.3       9 GLL5        0.0000 
     12 CA         24.1820    9.7060   -6.6640 C.3       6 GLP5        0.0000 
     13 CA         21.5590    9.7120   -9.4670 C.3       3 GLC5        0.0000 
     14 CA         21.6930    7.5100   -9.6000 C.3       6 GLP5        0.0000 
     15 O          18.1190    8.7690   -7.9540 O.2       1 ALC1        0.0000 
     16 O          18.9220    9.8540   -7.4410 O.2       7 ALL1        0.0000 
     17 O          17.3160    7.6840   -8.4670 O.2       4 ALP1        0.0000 
     18 N          17.8195    8.2600   -5.7905 N.am      2 SEC2        0.0000 
     19 N          18.5850    9.4930   -5.2480 N.am      8 SEL2        0.0000 
     20 N          17.0540    7.0270   -6.3330 N.am      5 SEP2        0.0000 
     21 CA         21.5145   10.5655   -2.7840 C.3       3 GLC5        0.0000 
     22 CA         20.7430   11.2180   -4.4200 C.3       9 GLL5        0.0000 
     23 CA         22.2860    9.9130   -1.1480 C.3       6 GLP5        0.0000 
     24 CA         20.7935   12.9530   -3.5210 C.3       3 GLC5        0.0000 
     25 CA         20.8440   14.6880   -2.6220 C.3       6 GLP5        0.0000 
     26 CA         22.6290   10.6335   -6.7875 C.3       3 GLC5        0.0000 
     27 CA         21.0760   11.5610   -6.9110 C.3       9 GLL5        0.0000 
     28 CA         19.7980   13.1125   -6.7765 C.3       3 GLC5        0.0000 
     29 CA         18.5200   14.6640   -6.6420 C.3       6 GLP5        0.0000 
     30 CA         24.1610   11.3420   -7.9677 C.3       3 GLC5        0.0000 
     31 CA         20.8660   15.3735  -10.1278 C.3       3 GLC5        0.0000 
     32 CA         22.6420   13.8830  -10.0080 C.3       9 GLL5        0.0000 
     33 CA         19.7870   17.1020  -10.4490 C.3       6 GLP5        0.0000 
     34 CA         19.7208   13.3902   -8.6627 C.3       3 GLC5        0.0000 
     35 CA         21.2480   13.4070   -9.6050 C.3       9 GLL5        0.0000 
     36 CA         18.1050   14.1200   -7.8560 C.3       6 GLP5        0.0000 
     37 CA         22.1980   10.3513   -5.2228 C.3       3 GLC5        0.0000 
     38 CA         20.3690   10.9690   -5.8570 C.3       9 GLL5        0.0000 
     39 CA         23.8400    9.6090   -5.3070 C.3       6 GLP5        0.0000 
     40 CA         20.6940    9.0772   -4.5512 C.3       3 GLC5        0.0000 
     41 CA         20.8320    7.0610   -3.9640 C.3       6 GLP5        0.0000 
     42 CA         18.9440   11.9998   -5.3033 C.3       3 GLC5        0.0000 
     43 CA         17.3320   12.9060   -5.4680 C.3       6 GLP5        0.0000 
@<TRIPOS>BOND
@<TRIPOS>SUBSTRUCTURE
     1 ALC1        1 GROUP        1 X    ALC  0     ROOT ALC X 1
     2 SEC2       18 GROUP        1 X    SEC  0     **** SEC X 2
     3 GLC5        4 GROUP        1 X    GLC  0     **** GLC X 6
     4 ALP1        3 GROUP        1 Y    ALP  0     ROOT ALP Y 8
     5 SEP2       20 GROUP        1 Y    SEP  0     **** SEP Y 9
     6 GLP5        6 GROUP        1 Y    GLP  0     **** GLP Y 13
     7 ALL1        2 GROUP        1 Z    ALL  0     ROOT ALL Z 15
     8 SEL2       19 GROUP        1 Z    SEL  0     **** SEL Z 16
     9 GLL5        5 GROUP        1 Z    GLL  0     **** GLL Z 20
@<TRIPOS>SET

