#    Name: 2jj8_AZZ_1_ligand
#    Modification time : Tue Mar 25 20:56:35 2014

@<TRIPOS>MOLECULE
2jj8_AZZ_1_ligand
   32    33     1     0     0
SMALL
NO_CHARGES


@<TRIPOS>ATOM
      1 O5'        24.0000   13.9040   -7.7100 O.3       1 AZZ1211     0.0000 
      2 C5'        24.6710   13.2130   -8.7790 C.3       1 AZZ1211     0.0000 
      3 C4'        23.6090   12.7430   -9.7640 C.3       1 AZZ1211     0.0000 
      4 O4'        22.8420   11.6690   -9.2280 O.3       1 AZZ1211     0.0000 
      5 C3'        22.6420   13.8830  -10.0080 C.3       1 AZZ1211     0.0000 
      6 N3'        22.7680   14.1280  -11.4180 N.2       1 AZZ1211     0.0000 
      7 N4'        23.5360   14.8560  -12.0810 N.1       1 AZZ1211     0.0000 
      8 N5'        24.2070   15.4920  -12.6580 N.1       1 AZZ1211     0.0000 
      9 C2'        21.2480   13.4070   -9.6050 C.3       1 AZZ1211     0.0000 
     10 C1'        21.4250   11.9140   -9.3340 C.3       1 AZZ1211     0.0000 
     11 N1         20.7010   11.3280   -8.1720 N.am      1 AZZ1211     0.0000 
     12 C2         19.6110   10.4530   -8.4210 C.2       1 AZZ1211     0.0000 
     13 O2         19.2600   10.2190   -9.6030 O.2       1 AZZ1211     0.0000 
     14 N3         18.9220    9.8540   -7.4410 N.am      1 AZZ1211     0.0000 
     15 C4         19.2310   10.0620   -6.1630 C.2       1 AZZ1211     0.0000 
     16 O4         18.5850    9.4930   -5.2480 O.2       1 AZZ1211     0.0000 
     17 C5         20.3690   10.9690   -5.8570 C.2       1 AZZ1211     0.0000 
     18 C5A        20.7430   11.2180   -4.4200 C.3       1 AZZ1211     0.0000 
     19 C6         21.0760   11.5610   -6.9110 C.2       1 AZZ1211     0.0000 
     20 H          25.2094   12.3410   -8.4173 H         1 AZZ1211     0.0000 
     21 H          25.3607   13.8655   -9.3078 H         1 AZZ1211     0.0000 
     22 H          24.0696   12.4880  -10.6880 H         1 AZZ1211     0.0000 
     23 H          22.9392   14.7046   -9.4256 H         1 AZZ1211     0.0000 
     24 H          20.5723   13.5482  -10.4121 H         1 AZZ1211     0.0000 
     25 H          20.9427   13.9000   -8.7153 H         1 AZZ1211     0.0000 
     26 H          21.0767   11.3881  -10.2622 H         1 AZZ1211     0.0000 
     27 H          18.1263    9.2109   -7.6884 H         1 AZZ1211     0.0000 
     28 H          21.8796   12.1705   -6.6841 H         1 AZZ1211     0.0000 
     29 H          20.9963   10.3723   -3.9503 H         1 AZZ1211     0.0000 
     30 H          21.5210   11.8413   -4.3414 H         1 AZZ1211     0.0000 
     31 H          19.9885   11.6247   -3.9050 H         1 AZZ1211     0.0000 
     32 H          24.5487   13.7155   -6.8955 H         1 AZZ1211     0.0000 
@<TRIPOS>BOND
     1    2    1 1    
     2   32    1 1    
     3    3    2 1    
     4   20    2 1    
     5   21    2 1    
     6    4    3 1    
     7    5    3 1    
     8   22    3 1    
     9   10    4 1    
    10    6    5 1    
    11    9    5 1    
    12   23    5 1    
    13    7    6 2    
    14    8    7 2    
    15   10    9 1    
    16   24    9 1    
    17   25    9 1    
    18   11   10 1    
    19   26   10 1    
    20   12   11 1    
    21   19   11 1    
    22   13   12 2    
    23   14   12 1    
    24   15   14 1    
    25   27   14 1    
    26   16   15 2    
    27   17   15 1    
    28   18   17 1    
    29   19   17 2    
    30   29   18 1    
    31   30   18 1    
    32   31   18 1    
    33   28   19 1    
@<TRIPOS>SUBSTRUCTURE
     1 AZZ1211     1 GROUP   
@<TRIPOS>SET

