#    Name: 1m0w_ANP_2_INTS_M
#    Modification time : Tue Mar 25 11:20:15 2014

@<TRIPOS>MOLECULE
1m0w_ANP_2_INTS_M
   63     0    15     0     0
SMALL
NO_CHARGES


@<TRIPOS>ATOM
      1 Zn          4.1495  -15.6385  -49.3010 Zn        4 ZIC7        0.0000 
      2 Zn          3.4270  -15.6740  -48.4570 Zn       14 ZIL7        0.0000 
      3 Zn          4.8720  -15.6030  -50.1450 Zn        9 ZIP7        0.0000 
      4 Zn          5.7850  -17.7005  -47.1970 Zn        4 ZIC7        0.0000 
      5 Zn          4.6160  -17.5440  -47.2230 Zn       14 ZIL7        0.0000 
      6 Zn          6.9540  -17.8570  -47.1710 Zn        9 ZIP7        0.0000 
      7 NZ          5.4000  -17.8675  -51.8655 N.4       3 LYC4        0.0000 
      8 NZ          4.7320  -17.7240  -50.8480 N.4      13 LYL4        0.0000 
      9 NZ          6.0680  -18.0110  -52.8830 N.4       8 LYP4        0.0000 
     10 Zn          4.8020  -16.6635  -50.4965 Zn        4 ZIC7        0.0000 
     11 Zn          4.7320  -17.7240  -50.8480 Zn       14 ZIL7        0.0000 
     12 NZ          4.5960  -18.7705  -52.0770 N.4       3 LYC4        0.0000 
     13 NZ          3.1240  -19.5300  -51.2710 N.4      13 LYL4        0.0000 
     14 NZ          6.6455  -19.0585  -51.9210 N.4       3 LYC4        0.0000 
     15 NZ          7.2230  -20.1060  -50.9590 N.4      13 LYL4        0.0000 
     16 NZ          8.1515  -20.8190  -51.7595 N.4       3 LYC4        0.0000 
     17 NZ          9.0800  -21.5320  -52.5600 N.4       8 LYP4        0.0000 
     18 N           6.6455  -19.0585  -51.9210 N.am      2 SEC2        0.0000 
     19 N           7.2230  -20.1060  -50.9590 N.am     12 SEL2        0.0000 
     20 N           6.0680  -18.0110  -52.8830 N.am      7 SEP2        0.0000 
     21 N           8.1515  -20.8190  -51.7595 N.am      2 SEC2        0.0000 
     22 N           9.0800  -21.5320  -52.5600 N.am      7 SEP2        0.0000 
     23 Zn          7.0915  -18.6880  -47.8600 Zn        4 ZIC7        0.0000 
     24 Zn          7.2290  -19.5190  -48.5490 Zn       14 ZIL7        0.0000 
     25 N           6.0720  -23.1655  -49.8490 N.am      2 SEC2        0.0000 
     26 N           6.4870  -21.8140  -49.2030 N.am     12 SEL2        0.0000 
     27 N           5.6570  -24.5170  -50.4950 N.am      7 SEP2        0.0000 
     28 O           9.4665  -21.3255  -45.1400 O.2       1 ALC1        0.0000 
     29 O           8.3040  -21.5590  -45.6050 O.2      11 ALL1        0.0000 
     30 O          10.6290  -21.0920  -44.6750 O.2       6 ALP1        0.0000 
     31 CA          7.7310  -26.4085  -48.4420 C.3       5 GLC5        0.0000 
     32 CA          8.5690  -24.5140  -47.7470 C.3      15 GLL5        0.0000 
     33 CA          6.8930  -28.3030  -49.1370 C.3      10 GLP5        0.0000 
     34 N           9.6540  -22.6400  -51.7595 N.am      2 SEC2        0.0000 
     35 N          10.2280  -23.7480  -50.9590 N.am     12 SEL2        0.0000 
     36 CA         12.0615  -23.8650  -52.7740 C.3       5 GLC5        0.0000 
     37 CA         12.2300  -25.2530  -51.0530 C.3      15 GLL5        0.0000 
     38 CA         11.8930  -22.4770  -54.4950 C.3      10 GLP5        0.0000 
     39 CA         13.2440  -26.9995  -51.9005 C.3       5 GLC5        0.0000 
     40 CA         14.2580  -28.7460  -52.7480 C.3      10 GLP5        0.0000 
     41 CA         14.2110  -24.9325  -50.8515 C.3       5 GLC5        0.0000 
     42 CA         16.1920  -24.6120  -50.6500 C.3      10 GLP5        0.0000 
     43 O          13.5180  -25.5940  -53.2090 O.2       1 ALC1        0.0000 
     44 O          12.6420  -24.8010  -52.2750 O.2      11 ALL1        0.0000 
     45 O          14.3940  -26.3870  -54.1430 O.2       6 ALP1        0.0000 
     46 N          14.1430  -26.8415  -50.6770 N.am      2 SEC2        0.0000 
     47 N          12.9370  -26.2390  -50.3590 N.am     12 SEL2        0.0000 
     48 N          15.3490  -27.4440  -50.9950 N.am      7 SEP2        0.0000 
     49 CA         13.0540  -25.4910  -47.7245 C.3       5 GLC5        0.0000 
     50 CA         12.4410  -26.6270  -49.1340 C.3      15 GLL5        0.0000 
     51 CA         13.6670  -24.3550  -46.3150 C.3      10 GLP5        0.0000 
     52 CA         12.2280  -28.2170  -49.9860 C.3       5 GLC5        0.0000 
     53 CA         12.0150  -29.8070  -50.8380 C.3      10 GLP5        0.0000 
     54 CA         14.3535  -26.1370  -49.3245 C.3       5 GLC5        0.0000 
     55 CA         16.2660  -25.6470  -49.5150 C.3      10 GLP5        0.0000 
     56 CA         12.1245  -24.7445  -47.7625 C.3       5 GLC5        0.0000 
     57 CA         10.5820  -25.1340  -49.2100 C.3      15 GLL5        0.0000 
     58 CA          9.7140  -21.7142  -47.8270 C.3       5 GLC5        0.0000 
     59 CA          9.0150  -23.6400  -46.6420 C.3      15 GLL5        0.0000 
     60 CA         10.8350  -20.4240  -48.9660 C.3      10 GLP5        0.0000 
     61 CA         10.7720  -25.9123  -52.1658 C.3       5 GLC5        0.0000 
     62 CA         11.0420  -24.6940  -50.4660 C.3      15 GLL5        0.0000 
     63 CA          9.9080  -26.8510  -53.5720 C.3      10 GLP5        0.0000 
@<TRIPOS>BOND
@<TRIPOS>SUBSTRUCTURE
     1 ALC1       28 GROUP        1 X    ALC  0     ROOT ALC X 1
     2 SEC2       18 GROUP        1 X    SEC  0     **** SEC X 2
     3 LYC4        7 GROUP        1 X    LYC  0     **** LYC X 4
     4 ZIC7        1 GROUP        1 X    ZIC  0     **** ZIC X 5
     5 GLC5       31 GROUP        1 X    GLC  0     **** GLC X 6
     6 ALP1       30 GROUP        1 Y    ALP  0     ROOT ALP Y 8
     7 SEP2       20 GROUP        1 Y    SEP  0     **** SEP Y 9
     8 LYP4        9 GROUP        1 Y    LYP  0     **** LYP Y 11
     9 ZIP7        3 GROUP        1 Y    ZIP  0     **** ZIP Y 12
    10 GLP5       33 GROUP        1 Y    GLP  0     **** GLP Y 13
    11 ALL1       29 GROUP        1 Z    ALL  0     ROOT ALL Z 15
    12 SEL2       19 GROUP        1 Z    SEL  0     **** SEL Z 16
    13 LYL4        8 GROUP        1 Z    LYL  0     **** LYL Z 18
    14 ZIL7        2 GROUP        1 Z    ZIL  0     **** ZIL Z 19
    15 GLL5       32 GROUP        1 Z    GLL  0     **** GLL Z 20
@<TRIPOS>SET

