#    Name: 1m0w_ANP_2_ligand
#    Modification time : Tue Mar 25 11:20:16 2014

@<TRIPOS>MOLECULE
1m0w_ANP_2_ligand
   43    45     1     0     0
SMALL
NO_CHARGES


@<TRIPOS>ATOM
      1 PG          3.3700  -17.0570  -47.8450 P.3       1 ANP1504     0.0000 
      2 O1G         3.4270  -15.6740  -48.4570 O.co2     1 ANP1504     0.0000 
      3 O2G         4.6160  -17.5440  -47.2230 O.co2     1 ANP1504     0.0000 
      4 O3G         2.1710  -17.2340  -46.9100 O.co2     1 ANP1504     0.0000 
      5 PB          3.9110  -18.7830  -50.2370 P.3       1 ANP1504     0.0000 
      6 O1B         4.7320  -17.7240  -50.8480 O.co2     1 ANP1504     0.0000 
      7 O2B         3.1240  -19.5300  -51.2710 O.co2     1 ANP1504     0.0000 
      8 N3B         3.0700  -18.0440  -49.1730 N.4       1 ANP1504     0.0000 
      9 PA          6.5890  -20.2620  -49.6160 P.3       1 ANP1504     0.0000 
     10 O1A         7.2230  -20.1060  -50.9590 O.co2     1 ANP1504     0.0000 
     11 O2A         7.2290  -19.5190  -48.5490 O.co2     1 ANP1504     0.0000 
     12 O3A         5.0360  -19.8950  -49.6740 O.3       1 ANP1504     0.0000 
     13 O5'         6.4870  -21.8140  -49.2030 O.3       1 ANP1504     0.0000 
     14 C5'         5.8990  -22.0390  -47.8980 C.3       1 ANP1504     0.0000 
     15 C4'         6.8510  -22.9270  -47.0630 C.3       1 ANP1504     0.0000 
     16 O4'         7.2530  -23.9990  -47.9030 O.3       1 ANP1504     0.0000 
     17 C3'         8.1710  -22.3690  -46.7340 C.3       1 ANP1504     0.0000 
     18 O3'         8.3040  -21.5590  -45.6050 O.3       1 ANP1504     0.0000 
     19 C2'         9.0150  -23.6400  -46.6420 C.3       1 ANP1504     0.0000 
     20 O2'         8.9080  -24.3800  -45.4360 O.3       1 ANP1504     0.0000 
     21 C1'         8.5690  -24.5140  -47.7470 C.3       1 ANP1504     0.0000 
     22 N9          9.4630  -24.4210  -48.9760 N.pl3     1 ANP1504     0.0000 
     23 C8          9.2750  -23.5930  -50.0390 C.2       1 ANP1504     0.0000 
     24 N7         10.2280  -23.7480  -50.9590 N.2       1 ANP1504     0.0000 
     25 C5         11.0420  -24.6940  -50.4660 C.ar      1 ANP1504     0.0000 
     26 C6         12.2300  -25.2530  -51.0530 C.ar      1 ANP1504     0.0000 
     27 N6         12.6420  -24.8010  -52.2750 N.pl3     1 ANP1504     0.0000 
     28 N1         12.9370  -26.2390  -50.3590 N.ar      1 ANP1504     0.0000 
     29 C2         12.4410  -26.6270  -49.1340 C.ar      1 ANP1504     0.0000 
     30 N3         11.3170  -26.1100  -48.5760 N.ar      1 ANP1504     0.0000 
     31 C4         10.5820  -25.1340  -49.2100 C.ar      1 ANP1504     0.0000 
     32 H           4.9437  -22.5556  -47.9716 H         1 ANP1504     0.0000 
     33 H           5.7557  -21.1060  -47.3557 H         1 ANP1504     0.0000 
     34 H           6.3652  -23.2963  -46.2088 H         1 ANP1504     0.0000 
     35 H           8.5468  -21.8715  -47.6569 H         1 ANP1504     0.0000 
     36 H          10.0499  -23.3639  -46.8523 H         1 ANP1504     0.0000 
     37 H           8.5322  -25.5201  -47.3752 H         1 ANP1504     0.0000 
     38 H           8.5202  -22.9596  -50.1072 H         1 ANP1504     0.0000 
     39 H          13.4409  -25.2576  -52.6666 H         1 ANP1504     0.0000 
     40 H          12.1085  -24.0533  -52.6704 H         1 ANP1504     0.0000 
     41 H          12.9754  -27.3752  -48.6013 H         1 ANP1504     0.0000 
     42 H           9.1253  -21.8928  -45.1424 H         1 ANP1504     0.0000 
     43 H           9.6068  -23.9948  -44.8332 H         1 ANP1504     0.0000 
@<TRIPOS>BOND
     1    2    1 ar   
     2    3    1 ar   
     3    4    1 ar   
     4    8    1 1    
     5    6    5 ar   
     6    7    5 ar   
     7    8    5 1    
     8   12    5 1    
     9   10    9 ar   
    10   11    9 ar   
    11   12    9 1    
    12   13    9 1    
    13   14   13 1    
    14   15   14 1    
    15   32   14 1    
    16   33   14 1    
    17   16   15 1    
    18   17   15 1    
    19   34   15 1    
    20   21   16 1    
    21   18   17 1    
    22   19   17 1    
    23   35   17 1    
    24   42   18 1    
    25   20   19 1    
    26   21   19 1    
    27   36   19 1    
    28   43   20 1    
    29   22   21 1    
    30   37   21 1    
    31   23   22 1    
    32   31   22 1    
    33   24   23 2    
    34   38   23 1    
    35   25   24 1    
    36   26   25 ar   
    37   31   25 ar   
    38   27   26 1    
    39   28   26 ar   
    40   39   27 1    
    41   40   27 1    
    42   29   28 ar   
    43   30   29 ar   
    44   41   29 1    
    45   31   30 ar   
@<TRIPOS>SUBSTRUCTURE
     1 ANP1504     1 GROUP   
@<TRIPOS>SET

