#    Name: 3fqc_55V_1_INTS_M
#    Modification time : Tue Mar 25 06:14:48 2014

@<TRIPOS>MOLECULE
3fqc_55V_1_INTS_M
   78     0     9     0     0
SMALL
NO_CHARGES


@<TRIPOS>ATOM
      1 CA        -31.9820   22.2265    8.9815 C.3       3 GLC5        0.0000 
      2 CA        -31.9070   20.5770    7.6420 C.3       9 GLL5        0.0000 
      3 CA        -32.0570   23.8760   10.3210 C.3       6 GLP5        0.0000 
      4 CA        -33.6575   20.9265   11.8165 C.3       3 GLC5        0.0000 
      5 CA        -34.4580   19.3420   11.3340 C.3       9 GLL5        0.0000 
      6 CA        -32.8570   22.5110   12.2990 C.3       6 GLP5        0.0000 
      7 CA        -34.1010   19.4190   13.0325 C.3       3 GLC5        0.0000 
      8 CA        -33.7440   19.4960   14.7310 C.3       6 GLP5        0.0000 
      9 CA        -32.1760   15.2740   10.5855 C.3       3 GLC5        0.0000 
     10 CA        -31.7760   17.3590   11.2220 C.3       9 GLL5        0.0000 
     11 CA        -32.5760   13.1890    9.9490 C.3       6 GLP5        0.0000 
     12 CA        -31.7075   17.8985   13.3975 C.3       3 GLC5        0.0000 
     13 CA        -31.6390   18.4380   15.5730 C.3       6 GLP5        0.0000 
     14 CA        -32.0755   14.3955   11.3660 C.3       3 GLC5        0.0000 
     15 CA        -31.5750   15.6020   12.7830 C.3       9 GLL5        0.0000 
     16 CA        -30.7995   14.5415   14.1870 C.3       3 GLC5        0.0000 
     17 CA        -30.0240   13.4810   15.5910 C.3       6 GLP5        0.0000 
     18 CA        -31.6070   17.0200   14.1780 C.3       3 GLC5        0.0000 
     19 CA        -29.8410   16.2575   13.6180 C.3       3 GLC5        0.0000 
     20 CA        -28.1070   16.9130   14.4530 C.3       6 GLP5        0.0000 
     21 CA        -30.1620   20.0755   10.7215 C.3       3 GLC5        0.0000 
     22 CA        -29.7510   18.0340   10.0510 C.3       9 GLL5        0.0000 
     23 CA        -30.5730   22.1170   11.3920 C.3       6 GLP5        0.0000 
     24 CA        -27.9135   16.5470    6.9665 C.3       3 GLC5        0.0000 
     25 CA        -27.8470   17.7970    8.3840 C.3       9 GLL5        0.0000 
     26 CA        -27.9800   15.2970    5.5490 C.3       6 GLP5        0.0000 
     27 CA        -25.8720   17.2365    8.6280 C.3       3 GLC5        0.0000 
     28 CA        -23.8970   16.6760    8.8720 C.3       6 GLP5        0.0000 
     29 CA        -26.5650   20.5060   11.0720 C.3       3 GLC5        0.0000 
     30 CA        -27.5820   19.1880   10.4820 C.3       9 GLL5        0.0000 
     31 CA        -25.5480   21.8240   11.6620 C.3       6 GLP5        0.0000 
     32 CA        -28.7505   20.3840   11.5690 C.3       3 GLC5        0.0000 
     33 CA        -29.9190   21.5800   12.6560 C.3       6 GLP5        0.0000 
     34 CA        -27.7005   18.7320   12.4535 C.3       3 GLC5        0.0000 
     35 CA        -27.8190   18.2760   14.4250 C.3       6 GLP5        0.0000 
     36 CA        -25.6995   18.8765   10.4245 C.3       3 GLC5        0.0000 
     37 CA        -23.8170   18.5650   10.3670 C.3       6 GLP5        0.0000 
     38 CA        -26.1920   12.0430    9.5660 C.3       3 GLC5        0.0000 
     39 CA        -27.4730   13.2120   10.6600 C.3       9 GLL5        0.0000 
     40 CA        -24.9110   10.8740    8.4720 C.3       6 GLP5        0.0000 
     41 CA        -28.7760   13.7775    7.7170 C.3       3 GLC5        0.0000 
     42 CA        -28.5760   13.4040    9.6080 C.3       9 GLL5        0.0000 
     43 CA        -28.9760   14.1510    5.8260 C.3       6 GLP5        0.0000 
     44 CA        -30.5760   13.2965    9.7785 C.3       3 GLC5        0.0000 
     45 N         -27.7400   11.0650   10.3840 N.am      2 SEC2        0.0000 
     46 N         -27.1180   11.9640   11.0000 N.am      8 SEL2        0.0000 
     47 N         -28.3620   10.1660    9.7680 N.am      5 SEP2        0.0000 
     48 CA        -25.6965   11.3930   13.8550 C.3       3 GLC5        0.0000 
     49 CA        -26.1700   11.7440   11.9110 C.3       9 GLL5        0.0000 
     50 CA        -25.2230   11.0420   15.7990 C.3       6 GLP5        0.0000 
     51 CA        -24.1830   12.0710   12.0075 C.3       3 GLC5        0.0000 
     52 CA        -22.1960   12.3980   12.1040 C.3       6 GLP5        0.0000 
     53 CA        -25.5405   11.3090   10.1915 C.3       3 GLC5        0.0000 
     54 CA        -27.5785   11.8395   12.9075 C.3       3 GLC5        0.0000 
     55 CA        -28.9870   11.9350   13.9040 C.3       6 GLP5        0.0000 
     56 O         -26.7715    9.4800   11.6025 O.2       1 ALC1        0.0000 
     57 O         -25.8400   10.5010   12.2310 O.2       7 ALL1        0.0000 
     58 O         -27.7030    8.4590   10.9740 O.2       4 ALP1        0.0000 
     59 O         -25.6420    8.9035   11.8435 O.2       1 ALC1        0.0000 
     60 O         -25.4440    7.3060   11.4560 O.2       4 ALP1        0.0000 
     61 O         -25.0740    9.4325   12.9660 O.2       1 ALC1        0.0000 
     62 O         -24.3080    8.3640   13.7010 O.2       4 ALP1        0.0000 
     63 CA        -25.5010   13.2745   14.1960 C.3       3 GLC5        0.0000 
     64 CA        -25.8320   14.0410   12.2000 C.3       9 GLL5        0.0000 
     65 CA        -25.1700   12.5080   16.1920 C.3       6 GLP5        0.0000 
     66 CA        -24.0140   13.2195   12.1520 C.3       3 GLC5        0.0000 
     67 O         -23.9965   14.6090   13.4970 O.2       1 ALC1        0.0000 
     68 O         -25.1510   14.9930   12.8290 O.2       7 ALL1        0.0000 
     69 O         -22.8420   14.2250   14.1650 O.2       4 ALP1        0.0000 
     70 CA        -31.2261   20.3351   10.6296 C.3       3 GLC5        0.0000 
     71 CA        -30.5190   18.8670    9.2400 C.3       9 GLL5        0.0000 
     72 CA        -27.7695   16.5405   12.5570 C.3       3 GLC5        0.0000 
     73 CA        -27.6430   16.7100   10.4540 C.3       9 GLL5        0.0000 
     74 CA        -25.7816   16.8370   10.3415 C.3       3 GLC5        0.0000 
     75 CA        -27.2210   15.6260   10.8680 C.3       9 GLL5        0.0000 
     76 CA        -23.9880   17.1980   10.1670 C.3       6 GLP5        0.0000 
     77 CA        -27.7392   12.9166   12.7420 C.3       3 GLC5        0.0000 
     78 CA        -26.8290   14.2990   11.2600 C.3       9 GLL5        0.0000 
@<TRIPOS>BOND
@<TRIPOS>SUBSTRUCTURE
     1 ALC1       56 GROUP        1 X    ALC  0     ROOT ALC X 1
     2 SEC2       45 GROUP        1 X    SEC  0     **** SEC X 2
     3 GLC5        1 GROUP        1 X    GLC  0     **** GLC X 6
     4 ALP1       58 GROUP        1 Y    ALP  0     ROOT ALP Y 8
     5 SEP2       47 GROUP        1 Y    SEP  0     **** SEP Y 9
     6 GLP5        3 GROUP        1 Y    GLP  0     **** GLP Y 13
     7 ALL1       57 GROUP        1 Z    ALL  0     ROOT ALL Z 15
     8 SEL2       46 GROUP        1 Z    SEL  0     **** SEL Z 16
     9 GLL5        2 GROUP        1 Z    GLL  0     **** GLL Z 20
@<TRIPOS>SET

