#    Name: 3fqc_55V_1_ligand
#    Modification time : Tue Mar 25 06:14:48 2014

@<TRIPOS>MOLECULE
3fqc_55V_1_ligand
   50    51     1     0     0
SMALL
NO_CHARGES


@<TRIPOS>ATOM
      1 C1P       -31.9070   20.5770    7.6420 C.3       1 55V219      0.0000 
      2 O1O       -32.6620   19.7770    8.6100 O.3       1 55V219      0.0000 
      3 C1N       -31.9080   18.9540    9.4110 C.ar      1 55V219      0.0000 
      4 C1M       -30.5190   18.8670    9.2400 C.ar      1 55V219      0.0000 
      5 C1Q       -32.5450   18.1960   10.4090 C.ar      1 55V219      0.0000 
      6 O1V       -33.9260   18.2340   10.5770 O.3       1 55V219      0.0000 
      7 C1W       -34.4580   19.3420   11.3340 C.3       1 55V219      0.0000 
      8 C1R       -31.7760   17.3590   11.2220 C.ar      1 55V219      0.0000 
      9 O1T       -32.3960   16.6200   12.1860 O.3       1 55V219      0.0000 
     10 C1U       -31.5750   15.6020   12.7830 C.3       1 55V219      0.0000 
     11 C1S       -30.3890   17.2890   11.0410 C.ar      1 55V219      0.0000 
     12 C1L       -29.7510   18.0340   10.0510 C.ar      1 55V219      0.0000 
     13 C1J       -28.2160   17.9420    9.8740 C.3       1 55V219      0.0000 
     14 C1K       -27.8470   17.7970    8.3840 C.3       1 55V219      0.0000 
     15 C1X       -27.5820   19.1880   10.4820 C.3       1 55V219      0.0000 
     16 C1I       -27.6430   16.7100   10.4540 C.1       1 55V219      0.0000 
     17 C1H       -27.2210   15.6260   10.8680 C.1       1 55V219      0.0000 
     18 C5        -26.8290   14.2990   11.2600 C.ar      1 55V219      0.0000 
     19 C4        -27.4730   13.2120   10.6600 C.ar      1 55V219      0.0000 
     20 C1Y       -28.5760   13.4040    9.6080 C.3       1 55V219      0.0000 
     21 N3        -27.1180   11.9640   11.0000 N.ar      1 55V219      0.0000 
     22 C2        -26.1700   11.7440   11.9110 C.ar      1 55V219      0.0000 
     23 N1Z       -25.8400   10.5010   12.2310 N.pl3     1 55V219      0.0000 
     24 N1        -25.5410   12.7720   12.4940 N.ar      1 55V219      0.0000 
     25 C6        -25.8320   14.0410   12.2000 C.ar      1 55V219      0.0000 
     26 N1G       -25.1510   14.9930   12.8290 N.pl3     1 55V219      0.0000 
     27 H         -30.0638   19.4281    8.5037 H         1 55V219      0.0000 
     28 H         -29.8301   16.6717   11.6553 H         1 55V219      0.0000 
     29 H         -26.3440    9.7769   11.7603 H         1 55V219      0.0000 
     30 H         -25.1168   10.3997   12.9142 H         1 55V219      0.0000 
     31 H         -25.6938   15.6489   13.3535 H         1 55V219      0.0000 
     32 H         -24.1572   14.9676   12.7211 H         1 55V219      0.0000 
     33 H         -31.2533   21.1852    8.0923 H         1 55V219      0.0000 
     34 H         -31.3859   20.0021    7.0111 H         1 55V219      0.0000 
     35 H         -32.5077   21.1520    7.0865 H         1 55V219      0.0000 
     36 H         -34.0934   19.3649   12.2649 H         1 55V219      0.0000 
     37 H         -34.2373   20.2208   10.9110 H         1 55V219      0.0000 
     38 H         -35.4540   19.2954   11.4104 H         1 55V219      0.0000 
     39 H         -31.2490   14.9429   12.1052 H         1 55V219      0.0000 
     40 H         -30.7672   15.9895   13.2272 H         1 55V219      0.0000 
     41 H         -32.0725   15.0846   13.4793 H         1 55V219      0.0000 
     42 H         -26.8577   17.7381    8.2504 H         1 55V219      0.0000 
     43 H         -28.2467   16.9738    7.9808 H         1 55V219      0.0000 
     44 H         -28.1699   18.5743    7.8441 H         1 55V219      0.0000 
     45 H         -26.5858   19.1778   10.3953 H         1 55V219      0.0000 
     46 H         -27.9063   20.0237   10.0388 H         1 55V219      0.0000 
     47 H         -27.7906   19.2731   11.4563 H         1 55V219      0.0000 
     48 H         -28.2426   13.9010    8.8068 H         1 55V219      0.0000 
     49 H         -28.9346   12.5293    9.2820 H         1 55V219      0.0000 
     50 H         -29.3507   13.9210    9.9722 H         1 55V219      0.0000 
@<TRIPOS>BOND
     1    2    1 1    
     2   33    1 1    
     3   34    1 1    
     4   35    1 1    
     5    3    2 1    
     6    4    3 ar   
     7    5    3 ar   
     8   12    4 ar   
     9   27    4 1    
    10    6    5 1    
    11    8    5 ar   
    12    7    6 1    
    13   36    7 1    
    14   37    7 1    
    15   38    7 1    
    16    9    8 1    
    17   11    8 ar   
    18   10    9 1    
    19   39   10 1    
    20   40   10 1    
    21   41   10 1    
    22   12   11 ar   
    23   28   11 1    
    24   13   12 1    
    25   14   13 1    
    26   15   13 1    
    27   16   13 1    
    28   42   14 1    
    29   43   14 1    
    30   44   14 1    
    31   45   15 1    
    32   46   15 1    
    33   47   15 1    
    34   17   16 3    
    35   18   17 1    
    36   19   18 ar   
    37   25   18 ar   
    38   20   19 1    
    39   21   19 ar   
    40   48   20 1    
    41   49   20 1    
    42   50   20 1    
    43   22   21 ar   
    44   23   22 1    
    45   24   22 ar   
    46   29   23 1    
    47   30   23 1    
    48   25   24 ar   
    49   26   25 1    
    50   31   26 1    
    51   32   26 1    
@<TRIPOS>SUBSTRUCTURE
     1 55V219      1 GROUP   
@<TRIPOS>SET

