#    Name: 4dqw_ATP_3_INTS_M
#    Modification time : Tue Mar 25 10:06:11 2014

@<TRIPOS>MOLECULE
4dqw_ATP_3_INTS_M
   90     0    15     0     0
SMALL
NO_CHARGES


@<TRIPOS>ATOM
      1 NZ         -5.5550  -31.7310   33.5400 N.4       3 LYC4        0.0000 
      2 NZ         -6.7680  -32.4270   33.8900 N.4      13 LYL4        0.0000 
      3 NZ         -4.8660  -29.8150   33.1030 N.4       8 LYP4        0.0000 
      4 Zn         -7.9270  -32.1490   33.3310 Zn        4 ZIC7        0.0000 
      5 Zn         -6.7680  -32.4270   33.8900 Zn       14 ZIL7        0.0000 
      6 Zn         -9.0860  -31.8710   32.7720 Zn        9 ZIP7        0.0000 
      7 N          -5.5550  -31.7310   33.5400 N.am      2 SEC2        0.0000 
      8 N          -6.7680  -32.4270   33.8900 N.am     12 SEL2        0.0000 
      9 N          -4.3420  -31.0350   33.1900 N.am      7 SEP2        0.0000 
     10 Zn         -8.6750  -32.4725   36.3405 Zn        4 ZIC7        0.0000 
     11 Zn         -8.4160  -33.1370   35.6610 Zn       14 ZIL7        0.0000 
     12 Zn         -8.9340  -31.8080   37.0200 Zn        9 ZIP7        0.0000 
     13 Zn         -7.8625  -33.8970   36.6630 Zn        4 ZIC7        0.0000 
     14 Zn         -7.3090  -34.6570   37.6650 Zn        9 ZIP7        0.0000 
     15 NZ         -4.5395  -35.5235   38.3985 N.4       3 LYC4        0.0000 
     16 NZ         -4.7930  -34.9840   37.3240 N.4      13 LYL4        0.0000 
     17 NZ         -4.2860  -36.0630   39.4730 N.4       8 LYP4        0.0000 
     18 Zn         -6.0510  -34.8205   37.4945 Zn        4 ZIC7        0.0000 
     19 Zn         -4.7930  -34.9840   37.3240 Zn       14 ZIL7        0.0000 
     20 N          -3.3185  -35.3040   33.5560 N.am      2 SEC2        0.0000 
     21 N          -4.2140  -34.6540   34.8370 N.am     12 SEL2        0.0000 
     22 N          -2.4230  -35.9540   32.2750 N.am      7 SEP2        0.0000 
     23 Zn         -6.6865  -33.9735   36.8500 Zn        4 ZIC7        0.0000 
     24 Zn         -6.0640  -33.2900   36.0350 Zn       14 ZIL7        0.0000 
     25 NZ         -3.4130  -34.9850   38.9650 N.4       3 LYC4        0.0000 
     26 NZ         -2.5400  -33.9070   38.4570 N.4      13 LYL4        0.0000 
     27 N          -3.4130  -34.9850   38.9650 N.am      2 SEC2        0.0000 
     28 N          -2.5400  -33.9070   38.4570 N.am     12 SEL2        0.0000 
     29 N          -4.2860  -36.0630   39.4730 N.am      7 SEP2        0.0000 
     30 NZ         -3.8010  -30.1635   37.5105 N.4       3 LYC4        0.0000 
     31 NZ         -2.7550  -31.3290   38.2960 N.4      13 LYL4        0.0000 
     32 NZ         -4.8470  -28.9980   36.7250 N.4       8 LYP4        0.0000 
     33 N          -2.7330  -30.8925   39.6330 N.am      2 SEC2        0.0000 
     34 N          -2.7550  -31.3290   38.2960 N.am     12 SEL2        0.0000 
     35 N          -2.7110  -30.4560   40.9700 N.am      7 SEP2        0.0000 
     36 N          -4.3430  -31.5635   36.6180 N.am      2 SEC2        0.0000 
     37 N          -3.6550  -32.8150   36.4420 N.am     12 SEL2        0.0000 
     38 N          -5.0310  -30.3120   36.7940 N.am      7 SEP2        0.0000 
     39 CA         -2.1205  -32.4390   34.0185 C.3       5 GLC5        0.0000 
     40 CA         -1.1080  -31.8290   35.5660 C.3      15 GLL5        0.0000 
     41 CA         -3.1330  -33.0490   32.4710 C.3      10 GLP5        0.0000 
     42 CA         -0.3765  -33.1205   33.2420 C.3       5 GLC5        0.0000 
     43 CA          1.1320  -32.6550   34.6970 C.3      15 GLL5        0.0000 
     44 CA         -1.8850  -33.5860   31.7870 C.3      10 GLP5        0.0000 
     45 O           2.1470  -33.5465   33.1715 O.2       1 ALC1        0.0000 
     46 O           2.1590  -32.1710   33.8280 O.2      11 ALL1        0.0000 
     47 O           2.1350  -34.9220   32.5150 O.2       6 ALP1        0.0000 
     48 CA          0.4470  -34.9625   36.1380 C.3       5 GLC5        0.0000 
     49 CA          1.7540  -33.2610   35.9250 C.3      15 GLL5        0.0000 
     50 CA         -0.8600  -36.6640   36.3510 C.3      10 GLP5        0.0000 
     51 CA          3.9525  -33.5240   35.8150 C.3       5 GLC5        0.0000 
     52 CA          6.1510  -33.7870   35.7050 C.3      10 GLP5        0.0000 
     53 N           4.1125  -33.6375   35.1350 N.am      2 SEC2        0.0000 
     54 N           2.9150  -34.0250   35.5940 N.am     12 SEL2        0.0000 
     55 N           5.3100  -33.2500   34.6760 N.am      7 SEP2        0.0000 
     56 O           2.8240  -35.2820   34.7385 O.2       1 ALC1        0.0000 
     57 O           2.9150  -34.0250   35.5940 O.2      11 ALL1        0.0000 
     58 O           2.7330  -36.5390   33.8830 O.2       6 ALP1        0.0000 
     59 O           2.5250  -34.4735   34.0545 O.2       1 ALC1        0.0000 
     60 CA          1.4255  -30.3220   37.9605 C.3       5 GLC5        0.0000 
     61 CA          2.0430  -32.0100   36.7320 C.3      15 GLL5        0.0000 
     62 CA          0.8080  -28.6340   39.1890 C.3      10 GLP5        0.0000 
     63 CA          4.4170  -30.2305   42.4265 C.3       5 GLC5        0.0000 
     64 CA          3.7360  -31.9090   41.3710 C.3      15 GLL5        0.0000 
     65 CA          5.0980  -28.5520   43.4820 C.3      10 GLP5        0.0000 
     66 CA          4.7285  -33.5775   42.4855 C.3       5 GLC5        0.0000 
     67 CA          5.7210  -35.2460   43.6000 C.3      10 GLP5        0.0000 
     68 O           4.3115  -31.6240   43.8690 O.2       1 ALC1        0.0000 
     69 O           3.5360  -32.2290   42.6790 O.2      11 ALL1        0.0000 
     70 O           5.0870  -31.0190   45.0590 O.2       6 ALP1        0.0000 
     71 O           2.2370  -32.3685   43.1505 O.2       1 ALC1        0.0000 
     72 O           0.9380  -32.5080   43.6220 O.2       6 ALP1        0.0000 
     73 N           5.8270  -30.7330   41.8470 N.am      2 SEC2        0.0000 
     74 N           4.8590  -31.2580   40.9720 N.am     12 SEL2        0.0000 
     75 N           6.7950  -30.2080   42.7220 N.am      7 SEP2        0.0000 
     76 CA          5.9080  -31.7855   38.1095 C.3       5 GLC5        0.0000 
     77 CA          5.0960  -30.9280   39.6850 C.3      15 GLL5        0.0000 
     78 CA          6.7200  -32.6430   36.5340 C.3      10 GLP5        0.0000 
     79 CA          6.7760  -31.0465   40.4635 C.3       5 GLC5        0.0000 
     80 CA          8.4560  -31.1650   41.2420 C.3      10 GLP5        0.0000 
     81 CA          5.2555  -29.2940   41.0025 C.3       5 GLC5        0.0000 
     82 CA          5.4150  -27.6600   42.3200 C.3      10 GLP5        0.0000 
     83 CA          4.8935  -32.2430   37.7450 C.3       5 GLC5        0.0000 
     84 CA          3.0670  -31.8430   38.9560 C.3      15 GLL5        0.0000 
     85 CA          1.9375  -30.2385   39.0725 C.3       5 GLC5        0.0000 
     86 CA          2.3807  -30.7087   41.5605 C.3       5 GLC5        0.0000 
     87 CA          2.7330  -32.2420   40.3290 C.3      15 GLL5        0.0000 
     88 CA          1.5270  -29.3420   42.2710 C.3      10 GLP5        0.0000 
     89 CA          3.8659  -33.6371   39.3440 C.3       5 GLC5        0.0000 
     90 CA          4.5810  -35.3150   38.7850 C.3      10 GLP5        0.0000 
@<TRIPOS>BOND
@<TRIPOS>SUBSTRUCTURE
     1 ALC1       45 GROUP        1 X    ALC  0     ROOT ALC X 1
     2 SEC2        7 GROUP        1 X    SEC  0     **** SEC X 2
     3 LYC4        1 GROUP        1 X    LYC  0     **** LYC X 4
     4 ZIC7        4 GROUP        1 X    ZIC  0     **** ZIC X 5
     5 GLC5       39 GROUP        1 X    GLC  0     **** GLC X 6
     6 ALP1       47 GROUP        1 Y    ALP  0     ROOT ALP Y 8
     7 SEP2        9 GROUP        1 Y    SEP  0     **** SEP Y 9
     8 LYP4        3 GROUP        1 Y    LYP  0     **** LYP Y 11
     9 ZIP7        6 GROUP        1 Y    ZIP  0     **** ZIP Y 12
    10 GLP5       41 GROUP        1 Y    GLP  0     **** GLP Y 13
    11 ALL1       46 GROUP        1 Z    ALL  0     ROOT ALL Z 15
    12 SEL2        8 GROUP        1 Z    SEL  0     **** SEL Z 16
    13 LYL4        2 GROUP        1 Z    LYL  0     **** LYL Z 18
    14 ZIL7        5 GROUP        1 Z    ZIL  0     **** ZIL Z 19
    15 GLL5       40 GROUP        1 Z    GLL  0     **** GLL Z 20
@<TRIPOS>SET

