#    Name: 4dqw_ATP_3_ligand
#    Modification time : Tue Mar 25 10:06:11 2014

@<TRIPOS>MOLECULE
4dqw_ATP_3_ligand
   43    45     1     0     0
SMALL
NO_CHARGES


@<TRIPOS>ATOM
      1 PG         -7.1720  -33.4700   34.8920 P.3       1 ATP501      0.0000 
      2 O1G        -6.7680  -32.4270   33.8900 O.co2     1 ATP501      0.0000 
      3 O2G        -7.1080  -34.8840   34.3770 O.co2     1 ATP501      0.0000 
      4 O3G        -8.4160  -33.1370   35.6610 O.co2     1 ATP501      0.0000 
      5 PB         -4.6460  -34.0580   36.1470 P.3       1 ATP501      0.0000 
      6 O1B        -4.7930  -34.9840   37.3240 O.co2     1 ATP501      0.0000 
      7 O2B        -4.2140  -34.6540   34.8370 O.co2     1 ATP501      0.0000 
      8 O3B        -6.0640  -33.2900   36.0350 O.3       1 ATP501      0.0000 
      9 PA         -2.5670  -32.6590   37.6230 P.3       1 ATP501      0.0000 
     10 O1A        -2.5400  -33.9070   38.4570 O.co2     1 ATP501      0.0000 
     11 O2A        -2.7550  -31.3290   38.2960 O.co2     1 ATP501      0.0000 
     12 O3A        -3.6550  -32.8150   36.4420 O.3       1 ATP501      0.0000 
     13 O5'        -1.1940  -32.5470   36.7930 O.3       1 ATP501      0.0000 
     14 C5'        -1.1080  -31.8290   35.5660 C.3       1 ATP501      0.0000 
     15 C4'         0.3410  -31.4770   35.2320 C.3       1 ATP501      0.0000 
     16 O4'         1.0360  -31.0560   36.4030 O.3       1 ATP501      0.0000 
     17 C3'         1.1320  -32.6550   34.6970 C.3       1 ATP501      0.0000 
     18 O3'         2.1590  -32.1710   33.8280 O.3       1 ATP501      0.0000 
     19 C2'         1.7540  -33.2610   35.9250 C.3       1 ATP501      0.0000 
     20 O2'         2.9150  -34.0250   35.5940 O.3       1 ATP501      0.0000 
     21 C1'         2.0430  -32.0100   36.7320 C.3       1 ATP501      0.0000 
     22 N9          2.0600  -32.2460   38.1960 N.pl3     1 ATP501      0.0000 
     23 C8          1.1300  -32.8450   38.9710 C.2       1 ATP501      0.0000 
     24 N7          1.5280  -32.8480   40.2720 N.2       1 ATP501      0.0000 
     25 C5          2.7330  -32.2420   40.3290 C.ar      1 ATP501      0.0000 
     26 C6          3.7360  -31.9090   41.3710 C.ar      1 ATP501      0.0000 
     27 N6          3.5360  -32.2290   42.6790 N.pl3     1 ATP501      0.0000 
     28 N1          4.8590  -31.2580   40.9720 N.ar      1 ATP501      0.0000 
     29 C2          5.0960  -30.9280   39.6850 C.ar      1 ATP501      0.0000 
     30 N3          4.2340  -31.2060   38.6970 N.ar      1 ATP501      0.0000 
     31 C4          3.0670  -31.8430   38.9560 C.ar      1 ATP501      0.0000 
     32 H          -1.6785  -30.8862   35.6045 H         1 ATP501      0.0000 
     33 H          -1.5107  -32.4138   34.7224 H         1 ATP501      0.0000 
     34 H           0.3537  -30.6970   34.4875 H         1 ATP501      0.0000 
     35 H           0.4810  -33.3377   34.2520 H         1 ATP501      0.0000 
     36 H           0.9974  -33.8127   36.4319 H         1 ATP501      0.0000 
     37 H           3.0169  -31.6334   36.4159 H         1 ATP501      0.0000 
     38 H           0.2902  -33.2236   38.6489 H         1 ATP501      0.0000 
     39 H           4.2790  -31.9979   43.3071 H         1 ATP501      0.0000 
     40 H           2.6637  -32.6669   42.8964 H         1 ATP501      0.0000 
     41 H           6.0025  -30.4284   39.4498 H         1 ATP501      0.0000 
     42 H           2.3728  -32.9406   33.2264 H         1 ATP501      0.0000 
     43 H           2.5721  -34.7993   35.0622 H         1 ATP501      0.0000 
@<TRIPOS>BOND
     1    2    1 ar   
     2    3    1 ar   
     3    4    1 ar   
     4    8    1 1    
     5    6    5 ar   
     6    7    5 ar   
     7    8    5 1    
     8   12    5 1    
     9   10    9 ar   
    10   11    9 ar   
    11   12    9 1    
    12   13    9 1    
    13   14   13 1    
    14   15   14 1    
    15   32   14 1    
    16   33   14 1    
    17   16   15 1    
    18   17   15 1    
    19   34   15 1    
    20   21   16 1    
    21   18   17 1    
    22   19   17 1    
    23   35   17 1    
    24   42   18 1    
    25   20   19 1    
    26   21   19 1    
    27   36   19 1    
    28   43   20 1    
    29   22   21 1    
    30   37   21 1    
    31   23   22 1    
    32   31   22 1    
    33   24   23 2    
    34   38   23 1    
    35   25   24 1    
    36   26   25 ar   
    37   31   25 ar   
    38   27   26 1    
    39   28   26 ar   
    40   39   27 1    
    41   40   27 1    
    42   29   28 ar   
    43   30   29 ar   
    44   41   29 1    
    45   31   30 ar   
@<TRIPOS>SUBSTRUCTURE
     1 ATP501      1 GROUP   
@<TRIPOS>SET

