#    Name: 1okc_CXT_1_INTS_M
#    Modification time : Mon Mar 24 20:14:44 2014

@<TRIPOS>MOLECULE
1okc_CXT_1_INTS_M
   99     0    12     0     0
SMALL
NO_CHARGES


@<TRIPOS>ATOM
      1 CA         24.4545   26.2105   26.8655 C.3       4 GLC5        0.0000 
      2 CA         23.2170   24.5720   26.2860 C.3      12 GLL5        0.0000 
      3 CA         25.6920   27.8490   27.4450 C.3       8 GLP5        0.0000 
      4 CA         25.6760   22.6080   24.3975 C.3       4 GLC5        0.0000 
      5 CA         24.2830   23.8650   25.4820 C.3      12 GLL5        0.0000 
      6 CA         27.0690   21.3510   23.3130 C.3       8 GLP5        0.0000 
      7 CA         25.8485   24.6830   24.5790 C.3       4 GLC5        0.0000 
      8 CA         27.4140   25.5010   23.6760 C.3       8 GLP5        0.0000 
      9 CA         21.6090   26.8030   26.5010 C.3       4 GLC5        0.0000 
     10 CA         22.1400   25.0390   25.3440 C.3      12 GLL5        0.0000 
     11 CA         21.0780   28.5670   27.6580 C.3       8 GLP5        0.0000 
     12 CA         22.5335   26.2705   24.1365 C.3       4 GLC5        0.0000 
     13 CA         22.9270   27.5020   22.9290 C.3       8 GLP5        0.0000 
     14 CA         20.4285   25.9555   25.0735 C.3       4 GLC5        0.0000 
     15 CA         18.7170   26.8720   24.8030 C.3       8 GLP5        0.0000 
     16 N          24.2155   24.3565   31.8230 N.am      2 SEC2        0.0000 
     17 N          23.1490   23.8510   31.0080 N.am     10 SEL2        0.0000 
     18 N          25.2820   24.8620   32.6380 N.am      6 SEP2        0.0000 
     19 NZ         22.0220   24.0310   34.6150 N.4       3 LYC4        0.0000 
     20 NZ         22.2980   24.0400   33.2800 N.4      11 LYL4        0.0000 
     21 NZ         21.7460   24.0220   35.9500 N.4       7 LYP4        0.0000 
     22 N          22.0220   24.0310   34.6150 N.am      2 SEC2        0.0000 
     23 N          22.2980   24.0400   33.2800 N.am     10 SEL2        0.0000 
     24 N          21.7460   24.0220   35.9500 N.am      6 SEP2        0.0000 
     25 NZ         20.4465   22.7805   35.6075 N.4       3 LYC4        0.0000 
     26 NZ         19.1470   21.5390   35.2650 N.4      11 LYL4        0.0000 
     27 NZ         16.5190   23.9230   33.7905 N.4       3 LYC4        0.0000 
     28 NZ         17.1670   22.6940   34.4370 N.4      11 LYL4        0.0000 
     29 NZ         15.1760   26.0270   33.8510 N.4       7 LYP4        0.0000 
     30 N          16.5190   23.9230   33.7905 N.am      2 SEC2        0.0000 
     31 N          17.1670   22.6940   34.4370 N.am     10 SEL2        0.0000 
     32 N          15.8710   25.1520   33.1440 N.am      6 SEP2        0.0000 
     33 NZ         20.5450   23.9240   35.1905 N.4       3 LYC4        0.0000 
     34 NZ         19.3440   23.8260   34.4310 N.4      11 LYL4        0.0000 
     35 N          20.5450   23.9240   35.1905 N.am      2 SEC2        0.0000 
     36 N          19.3440   23.8260   34.4310 N.am     10 SEL2        0.0000 
     37 CA         17.5260   24.1190   25.1430 C.3       4 GLC5        0.0000 
     38 CA         17.6270   22.1130   25.6270 C.3      12 GLL5        0.0000 
     39 CA         17.4250   26.1250   24.6590 C.3       8 GLP5        0.0000 
     40 CA         15.8535   21.7280   26.5740 C.3       4 GLC5        0.0000 
     41 CA         14.0800   21.3430   27.5210 C.3       8 GLP5        0.0000 
     42 CA         16.5440   20.8205   27.4320 C.3       4 GLC5        0.0000 
     43 CA         18.4610   21.4490   26.7600 C.3      12 GLL5        0.0000 
     44 CA         14.6270   20.1920   28.1040 C.3       8 GLP5        0.0000 
     45 CA         17.2145   24.1655   23.8735 C.3       4 GLC5        0.0000 
     46 CA         17.0040   22.2060   23.0880 C.3      12 GLL5        0.0000 
     47 CA         15.2120   24.4125   24.1485 C.3       4 GLC5        0.0000 
     48 CA         15.4870   22.7870   23.3040 C.3      12 GLL5        0.0000 
     49 CA         14.9370   26.0380   24.9930 C.3       8 GLP5        0.0000 
     50 CA         17.9170   23.4930   18.7490 C.3       4 GLC5        0.0000 
     51 CA         16.8930   22.8380   20.4750 C.3      12 GLL5        0.0000 
     52 CA         18.9410   24.1480   17.0230 C.3       8 GLP5        0.0000 
     53 NZ         23.0735   20.4000   23.4390 N.4       3 LYC4        0.0000 
     54 NZ         21.8400   19.9900   23.5910 N.4      11 LYL4        0.0000 
     55 NZ         24.9900   20.6120   24.4060 N.4       7 LYP4        0.0000 
     56 N          23.0735   20.4000   23.4390 N.am      2 SEC2        0.0000 
     57 N          21.8400   19.9900   23.5910 N.am     10 SEL2        0.0000 
     58 N          24.3070   20.8100   23.2870 N.am      6 SEP2        0.0000 
     59 N          23.1050   20.0760   24.5415 N.am      2 SEC2        0.0000 
     60 N          24.3700   20.1620   25.4920 N.am      6 SEP2        0.0000 
     61 NZ         23.8395   17.9180   25.4465 N.4       3 LYC4        0.0000 
     62 NZ         22.0960   18.8760   25.4510 N.4      11 LYL4        0.0000 
     63 NZ         25.5830   16.9600   25.4420 N.4       7 LYP4        0.0000 
     64 NZ         23.2330   19.5190   25.4715 N.4       3 LYC4        0.0000 
     65 N          23.2330   19.5190   25.4715 N.am      2 SEC2        0.0000 
     66 N          22.0960   18.8760   25.4510 N.am     10 SEL2        0.0000 
     67 CA         15.3505   19.5280   26.1405 C.3       4 GLC5        0.0000 
     68 CA         16.4530   20.1070   24.6470 C.3      12 GLL5        0.0000 
     69 CA         14.2480   18.9490   27.6340 C.3       8 GLP5        0.0000 
     70 CA         15.8160   25.4375   19.3615 C.3       4 GLC5        0.0000 
     71 CA         14.6090   23.6680   19.4500 C.3      12 GLL5        0.0000 
     72 CA         17.0230   27.2070   19.2730 C.3       8 GLP5        0.0000 
     73 CA         13.1035   24.2785   18.8435 C.3       4 GLC5        0.0000 
     74 CA         11.5980   24.8890   18.2370 C.3       8 GLP5        0.0000 
     75 CA         14.5630   22.7120   18.1030 C.3       4 GLC5        0.0000 
     76 CA         14.5170   21.7560   16.7560 C.3       8 GLP5        0.0000 
     77 N          18.9440   22.7885   19.2760 N.am      2 SEC2        0.0000 
     78 N          17.4740   22.5170   19.3350 N.am     10 SEL2        0.0000 
     79 N          20.4140   23.0600   19.2170 N.am      6 SEP2        0.0000 
     80 O          17.2285   21.4600   18.6055 O.2       1 ALC1        0.0000 
     81 O          17.4740   22.5170   19.3350 O.2       9 ALL1        0.0000 
     82 O          16.9830   20.4030   17.8760 O.2       5 ALP1        0.0000 
     83 CA         15.8445   20.7012   29.6415 C.3       4 GLC5        0.0000 
     84 CA         17.7680   21.3550   30.9450 C.3      12 GLL5        0.0000 
     85 CA         25.2705   23.9502   27.3610 C.3       4 GLC5        0.0000 
     86 CA         26.7910   23.6820   28.8380 C.3       8 GLP5        0.0000 
     87 CA         23.6635   25.2702   24.0550 C.3       4 GLC5        0.0000 
     88 CA         23.5770   26.3220   22.2260 C.3       8 GLP5        0.0000 
     89 CA         13.9823   24.1763   22.3158 C.3       4 GLC5        0.0000 
     90 CA         13.0480   25.9460   21.7080 C.3       8 GLP5        0.0000 
     91 CA         13.7543   22.4532   24.3847 C.3       4 GLC5        0.0000 
     92 CA         14.3460   22.0260   22.5430 C.3      12 GLL5        0.0000 
     93 CA         12.5920   22.5000   25.8460 C.3       8 GLP5        0.0000 
     94 CA         12.5765   21.8505   22.1118 C.3       4 GLC5        0.0000 
     95 CA         10.5730   21.8810   22.4010 C.3       8 GLP5        0.0000 
     96 CA         14.0207   24.5843   20.7845 C.3       4 GLC5        0.0000 
     97 CA         15.3780   22.7770   20.2720 C.3      12 GLL5        0.0000 
     98 CA         15.2009   21.2114   19.1601 C.3       4 GLC5        0.0000 
     99 CA         14.6270   20.4610   17.5560 C.3       8 GLP5        0.0000 
@<TRIPOS>BOND
@<TRIPOS>SUBSTRUCTURE
     1 ALC1       80 GROUP        1 X    ALC  0     ROOT ALC X 1
     2 SEC2       16 GROUP        1 X    SEC  0     **** SEC X 2
     3 LYC4       19 GROUP        1 X    LYC  0     **** LYC X 4
     4 GLC5        1 GROUP        1 X    GLC  0     **** GLC X 6
     5 ALP1       82 GROUP        1 Y    ALP  0     ROOT ALP Y 8
     6 SEP2       18 GROUP        1 Y    SEP  0     **** SEP Y 9
     7 LYP4       21 GROUP        1 Y    LYP  0     **** LYP Y 11
     8 GLP5        3 GROUP        1 Y    GLP  0     **** GLP Y 13
     9 ALL1       81 GROUP        1 Z    ALL  0     ROOT ALL Z 15
    10 SEL2       17 GROUP        1 Z    SEL  0     **** SEL Z 16
    11 LYL4       20 GROUP        1 Z    LYL  0     **** LYL Z 18
    12 GLL5        2 GROUP        1 Z    GLL  0     **** GLL Z 20
@<TRIPOS>SET

