#    Name: 1okc_CXT_1_ligand
#    Modification time : Mon Mar 24 20:14:44 2014

@<TRIPOS>MOLECULE
1okc_CXT_1_ligand
   91    95     1     0     0
SMALL
NO_CHARGES


@<TRIPOS>ATOM
      1 C1         18.6670   22.4640   28.8400 C.3       1 CXT401      0.0000 
      2 C2         19.7690   23.0380   29.7020 C.3       1 CXT401      0.0000 
      3 C3         19.9960   22.4280   31.0490 C.3       1 CXT401      0.0000 
      4 C4         18.6570   22.3230   31.7840 C.3       1 CXT401      0.0000 
      5 C5         17.7680   21.3550   30.9450 C.3       1 CXT401      0.0000 
      6 C6         16.3560   21.0660   31.4130 C.3       1 CXT401      0.0000 
      7 C7         21.4040   24.2620   28.3010 C.2       1 CXT401      0.0000 
      8 C8         22.4900   23.6730   27.3840 C.3       1 CXT401      0.0000 
      9 C9         23.2170   24.5720   26.2860 C.3       1 CXT401      0.0000 
     10 C10        24.2830   23.8650   25.4820 C.3       1 CXT401      0.0000 
     11 C11        22.1400   25.0390   25.3440 C.3       1 CXT401      0.0000 
     12 O1         17.5180   21.9940   29.6490 O.3       1 CXT401      0.0000 
     13 O2         19.0290   21.4120   28.1510 O.3       1 CXT401      0.0000 
     14 O3         21.0570   23.0140   29.0950 O.3       1 CXT401      0.0000 
     15 O13        20.9950   25.3160   28.3490 O.2       1 CXT401      0.0000 
     16 O4         20.8240   23.3180   31.7430 O.3       1 CXT401      0.0000 
     17 S1         22.3400   23.3080   32.0820 S.o2      1 CXT401      0.0000 
     18 O6         23.1490   23.8510   31.0080 O.co2     1 CXT401      0.0000 
     19 O7         22.2980   24.0400   33.2800 O.co2     1 CXT401      0.0000 
     20 O8         22.7070   21.9730   32.2500 O.co2     1 CXT401      0.0000 
     21 O5         18.9670   21.7500   33.0470 O.3       1 CXT401      0.0000 
     22 S2         18.6340   22.5400   34.3670 S.o2      1 CXT401      0.0000 
     23 O9         19.1470   21.5390   35.2650 O.co2     1 CXT401      0.0000 
     24 O10        17.1670   22.6940   34.4370 O.co2     1 CXT401      0.0000 
     25 O11        19.3440   23.8260   34.4310 O.co2     1 CXT401      0.0000 
     26 O12        15.3180   22.0260   31.5080 O.3       1 CXT401      0.0000 
     27 C21        17.6270   22.1130   25.6270 C.3       1 CXT401      0.0000 
     28 C22        18.4610   21.4490   26.7600 C.3       1 CXT401      0.0000 
     29 C23        19.8520   20.9250   26.2770 C.3       1 CXT401      0.0000 
     30 C24        19.8260   19.9210   25.0820 C.3       1 CXT401      0.0000 
     31 C25        19.0820   20.8240   23.8790 C.3       1 CXT401      0.0000 
     32 C26        18.9640   19.9850   22.5050 C.3       1 CXT401      0.0000 
     33 C27        18.5520   20.9780   21.3330 C.3       1 CXT401      0.0000 
     34 C28        17.1400   21.6020   21.5220 C.3       1 CXT401      0.0000 
     35 C29        17.0040   22.2060   23.0880 C.3       1 CXT401      0.0000 
     36 C30        17.5110   21.2830   24.2760 C.3       1 CXT401      0.0000 
     37 C31        15.4870   22.7870   23.3040 C.3       1 CXT401      0.0000 
     38 C32        14.3460   22.0260   22.5430 C.3       1 CXT401      0.0000 
     39 C33        14.8140   21.6140   21.1020 C.3       1 CXT401      0.0000 
     40 C34        16.0140   20.6180   21.2080 C.3       1 CXT401      0.0000 
     41 C35        16.8930   22.8380   20.4750 C.3       1 CXT401      0.0000 
     42 C36        15.3780   22.7770   20.2720 C.2       1 CXT401      0.0000 
     43 C37        21.3410   19.5360   24.7490 C.2       1 CXT401      0.0000 
     44 O22        21.8400   19.9900   23.5910 O.co2     1 CXT401      0.0000 
     45 O23        22.0960   18.8760   25.4510 O.co2     1 CXT401      0.0000 
     46 C38        19.2750   18.4540   25.3930 C.2       1 CXT401      0.0000 
     47 O24        18.9010   18.2320   26.6240 O.co2     1 CXT401      0.0000 
     48 O25        19.1870   17.5730   24.5700 O.co2     1 CXT401      0.0000 
     49 C39        16.4530   20.1070   24.6470 C.3       1 CXT401      0.0000 
     50 C40        14.6090   23.6680   19.4500 C.2       1 CXT401      0.0000 
     51 O21        17.4740   22.5170   19.3350 O.3       1 CXT401      0.0000 
     52 H          18.2867   23.2737   28.1990 H         1 CXT401      0.0000 
     53 H          19.5234   24.1215   29.8969 H         1 CXT401      0.0000 
     54 H          20.4151   21.4684   30.9428 H         1 CXT401      0.0000 
     55 H          18.2147   23.2588   31.8313 H         1 CXT401      0.0000 
     56 H          18.2865   20.4379   30.7706 H         1 CXT401      0.0000 
     57 H          16.4696   20.5176   32.4378 H         1 CXT401      0.0000 
     58 H          15.9892   20.1632   30.7694 H         1 CXT401      0.0000 
     59 H          22.0620   22.7824   26.8405 H         1 CXT401      0.0000 
     60 H          23.3029   23.2258   28.0252 H         1 CXT401      0.0000 
     61 H          23.6229   25.4286   26.7879 H         1 CXT401      0.0000 
     62 H          18.0681   23.0918   25.3823 H         1 CXT401      0.0000 
     63 H          16.6059   22.2998   25.9944 H         1 CXT401      0.0000 
     64 H          18.0090   20.2290   26.7530 H         1 CXT401      0.0000 
     65 H          20.3575   20.4403   27.1304 H         1 CXT401      0.0000 
     66 H          20.4716   21.7930   25.9915 H         1 CXT401      0.0000 
     67 H          19.6323   21.6949   23.7046 H         1 CXT401      0.0000 
     68 H          18.2044   19.2500   22.6260 H         1 CXT401      0.0000 
     69 H          19.9158   19.5619   22.2886 H         1 CXT401      0.0000 
     70 H          18.5787   20.4218   20.3960 H         1 CXT401      0.0000 
     71 H          19.2957   21.7737   21.2894 H         1 CXT401      0.0000 
     72 H          17.6474   23.1307   23.0736 H         1 CXT401      0.0000 
     73 H          15.5017   23.8360   22.9880 H         1 CXT401      0.0000 
     74 H          15.2887   22.7620   24.3813 H         1 CXT401      0.0000 
     75 H          13.4868   22.6746   22.4595 H         1 CXT401      0.0000 
     76 H          14.0897   21.1345   23.0956 H         1 CXT401      0.0000 
     77 H          14.0381   21.1358   20.5783 H         1 CXT401      0.0000 
     78 H          15.8542   19.9774   22.0133 H         1 CXT401      0.0000 
     79 H          16.1681   20.1713   20.2801 H         1 CXT401      0.0000 
     80 H          17.1503   23.6930   20.9681 H         1 CXT401      0.0000 
     81 H          24.7078   24.4738   24.8120 H         1 CXT401      0.0000 
     82 H          25.0157   23.5135   26.0647 H         1 CXT401      0.0000 
     83 H          23.9116   23.0863   24.9764 H         1 CXT401      0.0000 
     84 H          22.5085   25.6169   24.6158 H         1 CXT401      0.0000 
     85 H          21.6747   24.2719   24.9023 H         1 CXT401      0.0000 
     86 H          21.4396   25.5739   25.8166 H         1 CXT401      0.0000 
     87 H          16.2885   19.4972   23.8717 H         1 CXT401      0.0000 
     88 H          16.7791   19.5389   25.4026 H         1 CXT401      0.0000 
     89 H          15.5659   20.4784   24.9211 H         1 CXT401      0.0000 
     90 H          15.6962   22.8571   31.1002 H         1 CXT401      0.0000 
     91 H          17.0573   21.6481   19.0680 H         1 CXT401      0.0000 
@<TRIPOS>BOND
     1    2    1 1    
     2   12    1 1    
     3   13    1 1    
     4   52    1 1    
     5    3    2 1    
     6   14    2 1    
     7   53    2 1    
     8    4    3 1    
     9   16    3 1    
    10   54    3 1    
    11    5    4 1    
    12   21    4 1    
    13   55    4 1    
    14    6    5 1    
    15   12    5 1    
    16   56    5 1    
    17   26    6 1    
    18   57    6 1    
    19   58    6 1    
    20    8    7 1    
    21   14    7 1    
    22   15    7 2    
    23    9    8 1    
    24   59    8 1    
    25   60    8 1    
    26   10    9 1    
    27   11    9 1    
    28   61    9 1    
    29   81   10 1    
    30   82   10 1    
    31   83   10 1    
    32   84   11 1    
    33   85   11 1    
    34   86   11 1    
    35   28   13 1    
    36   17   16 1    
    37   18   17 ar   
    38   19   17 ar   
    39   20   17 ar   
    40   22   21 1    
    41   23   22 ar   
    42   24   22 ar   
    43   25   22 ar   
    44   90   26 1    
    45   28   27 1    
    46   36   27 1    
    47   62   27 1    
    48   63   27 1    
    49   29   28 1    
    50   64   28 1    
    51   30   29 1    
    52   65   29 1    
    53   66   29 1    
    54   31   30 1    
    55   43   30 1    
    56   46   30 1    
    57   32   31 1    
    58   36   31 1    
    59   67   31 1    
    60   33   32 1    
    61   68   32 1    
    62   69   32 1    
    63   34   33 1    
    64   70   33 1    
    65   71   33 1    
    66   35   34 1    
    67   40   34 1    
    68   41   34 1    
    69   36   35 1    
    70   37   35 1    
    71   72   35 1    
    72   49   36 1    
    73   38   37 1    
    74   73   37 1    
    75   74   37 1    
    76   39   38 1    
    77   75   38 1    
    78   76   38 1    
    79   40   39 1    
    80   42   39 1    
    81   77   39 1    
    82   78   40 1    
    83   79   40 1    
    84   42   41 1    
    85   51   41 1    
    86   80   41 1    
    87   50   42 2    
    88   44   43 ar   
    89   45   43 ar   
    90   47   46 ar   
    91   48   46 ar   
    92   87   49 1    
    93   88   49 1    
    94   89   49 1    
    95   91   51 1    
@<TRIPOS>SUBSTRUCTURE
     1 CXT401      1 GROUP   
@<TRIPOS>SET

