#    Name: 3n0z_3AT_2_INTS_M
#    Modification time : Tue Mar 25 00:30:37 2014

@<TRIPOS>MOLECULE
3n0z_3AT_2_INTS_M
   81     0    12     0     0
SMALL
NO_CHARGES


@<TRIPOS>ATOM
      1 NZ         17.8970   -5.8800   43.5440 N.4       2 LYC4        0.0000 
      2 NZ         17.3900   -4.7100   42.0180 N.4      10 LYL4        0.0000 
      3 NZ         18.4040   -7.0500   45.0700 N.4       6 LYP4        0.0000 
      4 NZ         17.2550   -3.3770   41.0995 N.4       2 LYC4        0.0000 
      5 NZ         17.1200   -2.0440   40.1810 N.4       6 LYP4        0.0000 
      6 Zn         16.7250   -4.2870   42.7515 Zn        3 ZIC7        0.0000 
      7 Zn         17.3900   -4.7100   42.0180 Zn       11 ZIL7        0.0000 
      8 Zn         16.0600   -3.8640   43.4850 Zn        7 ZIP7        0.0000 
      9 NZ         18.3710   -7.0590   43.6205 N.4       2 LYC4        0.0000 
     10 NZ         18.3380   -7.0680   42.1710 N.4      10 LYL4        0.0000 
     11 N          18.3710   -7.0590   43.6205 N.am      1 SEC2        0.0000 
     12 N          18.3380   -7.0680   42.1710 N.am      9 SEL2        0.0000 
     13 N          18.4040   -7.0500   45.0700 N.am      5 SEP2        0.0000 
     14 N          18.9830   -8.2955   42.0195 N.am      1 SEC2        0.0000 
     15 N          19.6280   -9.5230   41.8680 N.am      5 SEP2        0.0000 
     16 NZ         17.5840   -3.9755   40.0490 N.4       2 LYC4        0.0000 
     17 NZ         18.0480   -5.9070   39.9170 N.4      10 LYL4        0.0000 
     18 NZ         12.5465   -8.0605   41.7860 N.4       2 LYC4        0.0000 
     19 NZ         13.7430   -7.2190   41.4870 N.4      10 LYL4        0.0000 
     20 NZ         11.3500   -8.9020   42.0850 N.4       6 LYP4        0.0000 
     21 N          12.5465   -8.0605   41.7860 N.am      1 SEC2        0.0000 
     22 N          13.7430   -7.2190   41.4870 N.am      9 SEL2        0.0000 
     23 N          11.3500   -8.9020   42.0850 N.am      5 SEP2        0.0000 
     24 NZ         13.8535   -5.8115   44.0805 N.4       2 LYC4        0.0000 
     25 NZ         14.9260   -5.5710   43.0610 N.4      10 LYL4        0.0000 
     26 NZ         11.4750   -5.9180   44.9160 N.4       6 LYP4        0.0000 
     27 Zn         15.4930   -4.7175   43.2730 Zn        3 ZIC7        0.0000 
     28 Zn         14.9260   -5.5710   43.0610 Zn       11 ZIL7        0.0000 
     29 N          13.8535   -5.8115   44.0805 N.am      1 SEC2        0.0000 
     30 N          14.9260   -5.5710   43.0610 N.am      9 SEL2        0.0000 
     31 N          12.7810   -6.0520   45.1000 N.am      5 SEP2        0.0000 
     32 NZ         11.7975   -4.9585   40.8770 N.4       2 LYC4        0.0000 
     33 NZ         12.2910   -3.7550   41.8720 N.4      10 LYL4        0.0000 
     34 NZ         10.0710   -5.6550   39.9410 N.4       6 LYP4        0.0000 
     35 NZ         11.6390   -4.5970   42.8230 N.4       2 LYC4        0.0000 
     36 N          11.0700   -4.1410   41.2545 N.am      1 SEC2        0.0000 
     37 N          12.2910   -3.7550   41.8720 N.am      9 SEL2        0.0000 
     38 N           9.8490   -4.5270   40.6370 N.am      5 SEP2        0.0000 
     39 N          11.7975   -4.9585   40.8770 N.am      1 SEC2        0.0000 
     40 N          11.3040   -6.1620   39.8820 N.am      5 SEP2        0.0000 
     41 N          11.6390   -4.5970   42.8230 N.am      1 SEC2        0.0000 
     42 N          10.9870   -5.4390   43.7740 N.am      5 SEP2        0.0000 
     43 NZ         15.9095   -2.4455   41.1665 N.4       2 LYC4        0.0000 
     44 NZ         14.6990   -2.8470   42.1520 N.4      10 LYL4        0.0000 
     45 Zn         15.3795   -3.3555   42.8185 Zn        3 ZIC7        0.0000 
     46 Zn         14.6990   -2.8470   42.1520 Zn       11 ZIL7        0.0000 
     47 N          15.9095   -2.4455   41.1665 N.am      1 SEC2        0.0000 
     48 N          14.6990   -2.8470   42.1520 N.am      9 SEL2        0.0000 
     49 N          17.1200   -2.0440   40.1810 N.am      5 SEP2        0.0000 
     50 N          12.7590   -5.5330   40.3115 N.am      1 SEC2        0.0000 
     51 N          14.2140   -4.9040   40.7410 N.am      9 SEL2        0.0000 
     52 CA         11.1425   -2.7190   38.1980 C.3       4 GLC5        0.0000 
     53 CA         12.3080   -2.1340   39.5910 C.3      12 GLL5        0.0000 
     54 CA          9.9770   -3.3040   36.8050 C.3       8 GLP5        0.0000 
     55 CA         12.4585   -1.1090   37.5125 C.3       4 GLC5        0.0000 
     56 CA         12.3980   -0.6110   39.5050 C.3      12 GLL5        0.0000 
     57 CA         12.5190   -1.6070   35.5200 C.3       8 GLP5        0.0000 
     58 CA          9.9700    2.1620   42.0860 C.3       4 GLC5        0.0000 
     59 CA         11.5890    0.9490   41.1620 C.3      12 GLL5        0.0000 
     60 CA          8.3510    3.3750   43.0100 C.3       8 GLP5        0.0000 
     61 CA         12.4865    1.2165   38.7270 C.3       4 GLC5        0.0000 
     62 CA         10.6570    0.9280   39.9810 C.3      12 GLL5        0.0000 
     63 CA         14.3160    1.5050   37.4730 C.3       8 GLP5        0.0000 
     64 CA          7.0060    3.9785   40.2045 C.3       4 GLC5        0.0000 
     65 CA          6.7170    2.8970   38.9380 C.3      12 GLL5        0.0000 
     66 CA          7.2950    5.0600   41.4710 C.3       8 GLP5        0.0000 
     67 CA          5.8825    1.2730   37.9500 C.3       4 GLC5        0.0000 
     68 CA          5.0480   -0.3510   36.9620 C.3       8 GLP5        0.0000 
     69 CA          7.8955    2.1940   37.3345 C.3       4 GLC5        0.0000 
     70 CA          9.0740    1.4910   35.7310 C.3       8 GLP5        0.0000 
     71 CA          8.6150    1.4275   37.8540 C.3       4 GLC5        0.0000 
     72 CA          8.1560    1.3640   39.9770 C.3      12 GLL5        0.0000 
     73 CA         14.4215   -1.4272   39.2370 C.3       4 GLC5        0.0000 
     74 CA         16.4900   -1.4820   38.9260 C.3       8 GLP5        0.0000 
     75 CA         13.4117    0.5630   38.8588 C.3       4 GLC5        0.0000 
     76 CA         11.1655    3.0788   40.7097 C.3       4 GLC5        0.0000 
     77 CA         11.2080    5.2190   40.8480 C.3       8 GLP5        0.0000 
     78 CA          7.2920    3.1264   40.8526 C.3       4 GLC5        0.0000 
     79 CA          7.0590    0.7690   40.6010 C.3      12 GLL5        0.0000 
     80 CA          6.6910   -0.4521   39.3901 C.3       4 GLC5        0.0000 
     81 CA          6.0930   -2.0970   38.5460 C.3       8 GLP5        0.0000 
@<TRIPOS>BOND
@<TRIPOS>SUBSTRUCTURE
     1 SEC2       11 GROUP        1 X    SEC  0     ROOT SEC X 2
     2 LYC4        1 GROUP        1 X    LYC  0     **** LYC X 4
     3 ZIC7        6 GROUP        1 X    ZIC  0     **** ZIC X 5
     4 GLC5       52 GROUP        1 X    GLC  0     **** GLC X 6
     5 SEP2       13 GROUP        1 Y    SEP  0     ROOT SEP Y 9
     6 LYP4        3 GROUP        1 Y    LYP  0     **** LYP Y 11
     7 ZIP7        8 GROUP        1 Y    ZIP  0     **** ZIP Y 12
     8 GLP5       54 GROUP        1 Y    GLP  0     **** GLP Y 13
     9 SEL2       12 GROUP        1 Z    SEL  0     ROOT SEL Z 16
    10 LYL4        2 GROUP        1 Z    LYL  0     **** LYL Z 18
    11 ZIL7        7 GROUP        1 Z    ZIL  0     **** ZIL Z 19
    12 GLL5       53 GROUP        1 Z    GLL  0     **** GLL Z 20
@<TRIPOS>SET

