#    Name: 3n0z_3AT_2_ligand
#    Modification time : Tue Mar 25 00:30:37 2014

@<TRIPOS>MOLECULE
3n0z_3AT_2_ligand
   42    44     1     0     0
SMALL
NO_CHARGES


@<TRIPOS>ATOM
      1 PG         17.5660   -6.0260   41.3610 P.3       1 3AT181      0.0000 
      2 O1G        17.3900   -4.7100   42.0180 O.co2     1 3AT181      0.0000 
      3 O2G        18.3380   -7.0680   42.1710 O.co2     1 3AT181      0.0000 
      4 O3G        18.0480   -5.9070   39.9170 O.co2     1 3AT181      0.0000 
      5 PB         14.6770   -6.1490   41.7180 P.3       1 3AT181      0.0000 
      6 O1B        13.7430   -7.2190   41.4870 O.co2     1 3AT181      0.0000 
      7 O2B        14.9260   -5.5710   43.0610 O.co2     1 3AT181      0.0000 
      8 O3B        16.0750   -6.6410   41.1050 O.3       1 3AT181      0.0000 
      9 PA         13.6910   -3.5180   41.3160 P.3       1 3AT181      0.0000 
     10 O1A        12.2910   -3.7550   41.8720 O.co2     1 3AT181      0.0000 
     11 O2A        14.6990   -2.8470   42.1520 O.co2     1 3AT181      0.0000 
     12 O3A        14.2140   -4.9040   40.7410 O.3       1 3AT181      0.0000 
     13 O5'        13.5860   -2.6400   39.9730 O.3       1 3AT181      0.0000 
     14 C5'        12.3080   -2.1340   39.5910 C.3       1 3AT181      0.0000 
     15 C4'        12.3980   -0.6110   39.5050 C.3       1 3AT181      0.0000 
     16 O4'        11.1430   -0.0610   39.0850 O.3       1 3AT181      0.0000 
     17 C3'        12.6170   -0.1470   40.9840 C.3       1 3AT181      0.0000 
     18 C2'        11.5890    0.9490   41.1620 C.3       1 3AT181      0.0000 
     19 O2'        12.2330    2.2200   41.3250 O.3       1 3AT181      0.0000 
     20 C1'        10.6570    0.9280   39.9810 C.3       1 3AT181      0.0000 
     21 N9          9.2460    0.6660   40.3590 N.pl3     1 3AT181      0.0000 
     22 C8          8.8580   -0.3080   41.2030 C.2       1 3AT181      0.0000 
     23 N7          7.5180   -0.2580   41.3590 N.2       1 3AT181      0.0000 
     24 C5          7.0590    0.7690   40.6010 C.ar      1 3AT181      0.0000 
     25 C6          5.7850    1.2740   40.3820 C.ar      1 3AT181      0.0000 
     26 N6          4.7040    0.6990   41.0010 N.pl3     1 3AT181      0.0000 
     27 N1          5.6510    2.3440   39.5560 N.ar      1 3AT181      0.0000 
     28 C2          6.7170    2.8970   38.9380 C.ar      1 3AT181      0.0000 
     29 N3          7.9610    2.4300   39.1530 N.ar      1 3AT181      0.0000 
     30 C4          8.1560    1.3640   39.9770 C.ar      1 3AT181      0.0000 
     31 H          11.5360   -2.3827   40.3204 H         1 3AT181      0.0000 
     32 H          11.9971   -2.5064   38.6139 H         1 3AT181      0.0000 
     33 H          13.2123   -0.3211   38.9444 H         1 3AT181      0.0000 
     34 H          13.5959    0.2389   41.0755 H         1 3AT181      0.0000 
     35 H          12.4132   -0.9600   41.6267 H         1 3AT181      0.0000 
     36 H          11.0042    0.6983   42.0529 H         1 3AT181      0.0000 
     37 H          10.7194    1.9136   39.5015 H         1 3AT181      0.0000 
     38 H           9.4488   -0.9487   41.6342 H         1 3AT181      0.0000 
     39 H           3.8168    1.1240   40.8216 H         1 3AT181      0.0000 
     40 H           4.8979   -0.0948   41.5774 H         1 3AT181      0.0000 
     41 H           6.5713    3.7019   38.2815 H         1 3AT181      0.0000 
     42 H          11.4914    2.8632   41.5156 H         1 3AT181      0.0000 
@<TRIPOS>BOND
     1    2    1 ar   
     2    3    1 ar   
     3    4    1 ar   
     4    8    1 1    
     5    6    5 ar   
     6    7    5 ar   
     7    8    5 1    
     8   12    5 1    
     9   10    9 ar   
    10   11    9 ar   
    11   12    9 1    
    12   13    9 1    
    13   14   13 1    
    14   15   14 1    
    15   31   14 1    
    16   32   14 1    
    17   16   15 1    
    18   17   15 1    
    19   33   15 1    
    20   20   16 1    
    21   18   17 1    
    22   34   17 1    
    23   35   17 1    
    24   19   18 1    
    25   20   18 1    
    26   36   18 1    
    27   42   19 1    
    28   21   20 1    
    29   37   20 1    
    30   22   21 1    
    31   30   21 1    
    32   23   22 2    
    33   38   22 1    
    34   24   23 1    
    35   25   24 ar   
    36   30   24 ar   
    37   26   25 1    
    38   27   25 ar   
    39   39   26 1    
    40   40   26 1    
    41   28   27 ar   
    42   29   28 ar   
    43   41   28 1    
    44   30   29 ar   
@<TRIPOS>SUBSTRUCTURE
     1 3AT181      1 GROUP   
@<TRIPOS>SET

