#    Name: 3CJ4_2_CAVITY_N1_6.mol2
#    Modification time : Tue Mar 11 14:18:25 2014

@<TRIPOS>MOLECULE
3CJ4_2_CAVITY_N1_6.mol2
   70     0     5     0     0
SMALL
NO_CHARGES


@<TRIPOS>ATOM
      1 CA         22.4618   -5.5429   85.8028 C.3       4 GLY6        0.0000 
      2 N          23.5812   -6.5368   85.8988 N.2       1 ALA2        0.0000 
      3 CA         19.2251   -4.6643   85.7653 C.3       4 GLY6        0.0000 
      4 CA         20.3445   -5.6582   85.8613 C.3       4 GLY6        0.0000 
      5 N          21.4638   -6.6520   85.9572 N.2       1 ALA2        0.0000 
      6 O          17.1077   -4.7795   85.8238 O.2       1 ALA2        0.0000 
      7 O          18.2271   -5.7734   85.9197 O.2       1 ALA2        0.0000 
      8 DU         19.3465   -6.7673   86.0156 H         5 CUB7        0.0000 
      9 O          20.4658   -7.7612   86.1116 O.2       1 ALA2        0.0000 
     10 N          23.4285   -4.6128   84.1595 N.2       1 ALA2        0.0000 
     11 N          22.4305   -5.7220   84.3139 N.2       1 ALA2        0.0000 
     12 N          20.3131   -5.8372   84.3723 N.2       1 ALA2        0.0000 
     13 CA         21.4325   -6.8311   84.4683 C.3       4 GLY6        0.0000 
     14 CZ         18.1957   -5.9524   84.4307 C.ar      3 PHE5        0.0000 
     15 CZ         19.3151   -6.9463   84.5267 C.ar      3 PHE5        0.0000 
     16 DU         20.4345   -7.9402   84.6226 H         5 CUB7        0.0000 
     17 CZ         21.5538   -8.9341   84.7186 C.ar      3 PHE5        0.0000 
     18 CZ         17.1977   -7.0615   84.5851 C.ar      3 PHE5        0.0000 
     19 CA         18.3171   -8.0554   84.6811 C.3       4 GLY6        0.0000 
     20 CA         19.4365   -9.0493   84.7770 C.3       4 GLY6        0.0000 
     21 CZ         20.5558  -10.0432   84.8729 C.ar      3 PHE5        0.0000 
     22 CA         17.3191   -9.1645   84.8354 C.3       4 GLY6        0.0000 
     23 CA         18.4385  -10.1584   84.9314 C.3       4 GLY6        0.0000 
     24 CA         16.3211  -10.2737   84.9898 C.3       4 GLY6        0.0000 
     25 CA         17.4404  -11.2675   85.0857 C.3       4 GLY6        0.0000 
     26 CA         15.3231  -11.3828   85.1442 C.3       4 GLY6        0.0000 
     27 CA         18.7752  -13.8274   89.8988 C.3       4 GLY6        0.0000 
     28 OD1        21.5265   -6.2940   88.9351 O.3       2 ASP3        0.0000 
     29 CZ         20.3718   -8.2982   81.6447 C.ar      3 PHE5        0.0000 
     30 CA         21.3738   -4.3700   87.1958 C.3       4 GLY6        0.0000 
     31 OD1        22.4932   -5.3639   87.2918 O.3       2 ASP3        0.0000 
     32 CA         20.3758   -5.4791   87.3502 C.3       4 GLY6        0.0000 
     33 O          21.4952   -6.4730   87.4462 O.2       1 ALA2        0.0000 
     34 DU         18.2584   -5.5944   87.4086 H         5 CUB7        0.0000 
     35 DU         19.3778   -6.5883   87.5046 H         5 CUB7        0.0000 
     36 O          20.4972   -7.5821   87.6005 O.2       1 ALA2        0.0000 
     37 DU         18.3798   -7.6974   87.6589 H         5 CUB7        0.0000 
     38 O          19.4992   -8.6913   87.7549 O.2       1 ALA2        0.0000 
     39 DU         17.3818   -8.8065   87.8133 H         5 CUB7        0.0000 
     40 O          18.5011   -9.8004   87.9093 O.2       1 ALA2        0.0000 
     41 DU         17.5031  -10.9095   88.0636 H         5 CUB7        0.0000 
     42 CA         18.6225  -11.9034   88.1596 C.3       4 GLY6        0.0000 
     43 DU         16.5051  -12.0186   88.2180 H         5 CUB7        0.0000 
     44 CA         17.6245  -13.0125   88.3139 C.3       4 GLY6        0.0000 
     45 CA         16.6265  -14.1216   88.4683 C.3       4 GLY6        0.0000 
     46 O          21.5852   -8.7550   86.2075 O.2       1 ALA2        0.0000 
     47 O          16.1097   -5.8886   85.9781 O.2       1 ALA2        0.0000 
     48 DU         17.2291   -6.8825   86.0741 H         5 CUB7        0.0000 
     49 DU         18.3484   -7.8764   86.1700 H         5 CUB7        0.0000 
     50 O          19.4678   -8.8703   86.2659 O.2       1 ALA2        0.0000 
     51 O          20.5872   -9.8642   86.3619 O.2       1 ALA2        0.0000 
     52 DU         16.2311   -7.9916   86.2284 H         5 CUB7        0.0000 
     53 DU         17.3504   -8.9855   86.3244 H         5 CUB7        0.0000 
     54 CA         18.4698   -9.9794   86.4203 C.3       4 GLY6        0.0000 
     55 CA         19.5892  -10.9733   86.5162 C.3       4 GLY6        0.0000 
     56 DU         16.3524  -10.0946   86.4787 H         5 CUB7        0.0000 
     57 CA         17.4718  -11.0885   86.5747 C.3       4 GLY6        0.0000 
     58 CA         18.5912  -12.0824   86.6706 C.3       4 GLY6        0.0000 
     59 CA         15.3544  -11.2038   86.6331 C.3       4 GLY6        0.0000 
     60 CA         16.4738  -12.1976   86.7290 C.3       4 GLY6        0.0000 
     61 N          17.5931  -13.1915   86.8250 N.2       1 ALA2        0.0000 
     62 CA         14.3564  -12.3129   86.7875 C.3       4 GLY6        0.0000 
     63 CA         15.4758  -13.3068   86.8834 C.3       4 GLY6        0.0000 
     64 N          20.2818   -6.0162   82.8834 N.2       1 ALA2        0.0000 
     65 N          21.4011   -7.0101   82.9793 N.2       1 ALA2        0.0000 
     66 CZ         19.2838   -7.1253   83.0377 C.ar      3 PHE5        0.0000 
     67 CA         20.4031   -8.1192   83.1337 C.3       4 GLY6        0.0000 
     68 CZ         21.5225   -9.1131   83.2296 C.ar      3 PHE5        0.0000 
     69 CA         19.4051   -9.2283   83.2880 C.3       4 GLY6        0.0000 
     70 CA         20.5245  -10.2222   83.3840 C.3       4 GLY6        0.0000 
@<TRIPOS>BOND
@<TRIPOS>SUBSTRUCTURE
     1 ALA2        2 GROUP   
     2 ASP3       28 GROUP   
     3 PHE5       14 GROUP   
     4 GLY6        1 GROUP   
     5 CUB7        8 GROUP   
@<TRIPOS>SET

