#    Name: 3cj4_SX5_2_INTS_M
#    Modification time : Mon Mar 24 21:41:33 2014

@<TRIPOS>MOLECULE
3cj4_SX5_2_INTS_M
   54     0     6     0     0
SMALL
NO_CHARGES


@<TRIPOS>ATOM
      1 N          18.4925   -1.3575   87.0535 N.am      1 SEC2        0.0000 
      2 N          17.6770   -2.1010   87.9330 N.am      5 SEL2        0.0000 
      3 N          19.3080   -0.6140   86.1740 N.am      3 SEP2        0.0000 
      4 N          16.9480   -1.3900   87.2260 N.am      1 SEC2        0.0000 
      5 N          16.2190   -0.6790   86.5190 N.am      3 SEP2        0.0000 
      6 N          17.6095   -3.8285   85.2405 N.am      1 SEC2        0.0000 
      7 N          18.0360   -5.0940   86.0900 N.am      5 SEL2        0.0000 
      8 N          17.1830   -2.5630   84.3910 N.am      3 SEP2        0.0000 
      9 CA         20.2720   -4.4960   84.7315 C.3       2 GLC5        0.0000 
     10 CA         20.3720   -6.4360   84.6570 C.3       6 GLL5        0.0000 
     11 CA         20.1720   -2.5560   84.8060 C.3       4 GLP5        0.0000 
     12 CA         20.1505   -4.8175   83.4500 C.3       2 GLC5        0.0000 
     13 CA         20.8690   -6.9110   83.4390 C.3       6 GLL5        0.0000 
     14 CA         19.4320   -2.7240   83.4610 C.3       4 GLP5        0.0000 
     15 CA         22.1580   -9.6465   79.9920 C.3       2 GLC5        0.0000 
     16 CA         21.4810   -8.9580   81.5100 C.3       6 GLL5        0.0000 
     17 CA         22.8350  -10.3350   78.4740 C.3       4 GLP5        0.0000 
     18 CA         19.8895   -7.4470   81.2350 C.3       2 GLC5        0.0000 
     19 CA         18.2980   -5.9360   80.9600 C.3       4 GLP5        0.0000 
     20 CA         22.8150   -9.7890   82.5015 C.3       2 GLC5        0.0000 
     21 CA         24.1490  -10.6200   83.4930 C.3       4 GLP5        0.0000 
     22 N          20.9170  -10.2505   87.6860 N.am      1 SEC2        0.0000 
     23 N          20.0460  -10.5280   86.7060 N.am      5 SEL2        0.0000 
     24 N          21.7880   -9.9730   88.6660 N.am      3 SEP2        0.0000 
     25 CA         17.2390  -11.1090   84.2815 C.3       2 GLC5        0.0000 
     26 CA         15.6240  -10.0130   85.3640 C.3       6 GLL5        0.0000 
     27 CA         18.8540  -12.2050   83.1990 C.3       4 GLP5        0.0000 
     28 CA         14.6170   -9.4115   83.1040 C.3       2 GLC5        0.0000 
     29 CA         14.4380   -9.1450   84.9750 C.3       6 GLL5        0.0000 
     30 CA         14.7960   -9.6780   81.2330 C.3       4 GLP5        0.0000 
     31 CA         13.2835   -7.8855   84.4595 C.3       2 GLC5        0.0000 
     32 CA         12.1290   -6.6260   83.9440 C.3       4 GLP5        0.0000 
     33 CA         16.5500  -14.6725   88.2140 C.3       2 GLC5        0.0000 
     34 CA         15.9080  -12.7790   88.0080 C.3       6 GLL5        0.0000 
     35 CA         17.1920  -16.5660   88.4200 C.3       4 GLP5        0.0000 
     36 CA         22.7535   -7.8192   83.5703 C.3       2 GLC5        0.0000 
     37 CA         20.8210   -8.2820   83.1520 C.3       6 GLL5        0.0000 
     38 CA         24.6620   -8.0420   83.8450 C.3       4 GLP5        0.0000 
     39 CA         19.1775   -9.0845   82.1135 C.3       2 GLC5        0.0000 
     40 CA         17.2040   -9.5490   81.8960 C.3       4 GLP5        0.0000 
     41 CA         20.6610  -10.4830   82.1510 C.3       2 GLC5        0.0000 
     42 CA         20.1710  -12.3460   81.9710 C.3       4 GLP5        0.0000 
     43 CA         18.6187   -9.2495   83.2855 C.3       2 GLC5        0.0000 
     44 CA         20.2870   -9.1820   84.0650 C.3       6 GLL5        0.0000 
     45 CA         19.4438  -10.5775   83.9370 C.3       2 GLC5        0.0000 
     46 CA         16.7085   -9.5587   83.7318 C.3       2 GLC5        0.0000 
     47 CA         16.8020   -9.1240   85.7710 C.3       6 GLL5        0.0000 
     48 CA         14.9288  -11.5237   84.4114 C.3       2 GLC5        0.0000 
     49 CA         14.7500  -12.7710   83.0050 C.3       4 GLP5        0.0000 
     50 CA         18.1662  -12.3395   85.8297 C.3       2 GLC5        0.0000 
     51 CA         16.3710  -11.7890   86.9470 C.3       6 GLL5        0.0000 
     52 CA         19.4150  -13.3550   84.4480 C.3       4 GLP5        0.0000 
     53 CA         15.9657  -13.4230   85.9603 C.3       2 GLC5        0.0000 
     54 CA         15.7920  -14.5620   84.4430 C.3       4 GLP5        0.0000 
@<TRIPOS>BOND
@<TRIPOS>SUBSTRUCTURE
     1 SEC2        1 GROUP        1 X    SEC  0     ROOT SEC X 2
     2 GLC5        9 GROUP        1 X    GLC  0     **** GLC X 6
     3 SEP2        3 GROUP        1 Y    SEP  0     ROOT SEP Y 9
     4 GLP5       11 GROUP        1 Y    GLP  0     **** GLP Y 13
     5 SEL2        2 GROUP        1 Z    SEL  0     ROOT SEL Z 16
     6 GLL5       10 GROUP        1 Z    GLL  0     **** GLL Z 20
@<TRIPOS>SET

