#    Name: 3cj4_SX5_2_ligand
#    Modification time : Mon Mar 24 21:41:33 2014

@<TRIPOS>MOLECULE
3cj4_SX5_2_ligand
   47    48     1     0     0
SMALL
NO_CHARGES


@<TRIPOS>ATOM
      1 O3         17.6770   -2.1010   87.9330 O.co2     1 SX5571      0.0000 
      2 C18        18.1060   -3.1480   88.3840 C.2       1 SX5571      0.0000 
      3 O4         19.4310   -3.3070   88.6000 O.co2     1 SX5571      0.0000 
      4 C17        17.2960   -4.3600   88.7490 C.3       1 SX5571      0.0000 
      5 C16        18.0420   -5.6590   88.4520 C.3       1 SX5571      0.0000 
      6 C15        18.4350   -5.8250   86.9950 C.2       1 SX5571      0.0000 
      7 O2         18.0360   -5.0940   86.0900 O.2       1 SX5571      0.0000 
      8 N2         19.2990   -6.8900   86.8310 N.am      1 SX5571      0.0000 
      9 C14        19.8360   -7.3300   85.5980 C.ar      1 SX5571      0.0000 
     10 C13        20.3720   -6.4360   84.6570 C.ar      1 SX5571      0.0000 
     11 C12        20.8690   -6.9110   83.4390 C.ar      1 SX5571      0.0000 
     12 C11        20.8210   -8.2820   83.1520 C.ar      1 SX5571      0.0000 
     13 BR1        21.4810   -8.9580   81.5100 Br        1 SX5571      0.0000 
     14 C10        20.2870   -9.1820   84.0650 C.ar      1 SX5571      0.0000 
     15 C9         19.7800   -8.7180   85.2850 C.ar      1 SX5571      0.0000 
     16 C8         19.2320   -9.7330   86.2280 C.2       1 SX5571      0.0000 
     17 O1         20.0460  -10.5280   86.7060 O.2       1 SX5571      0.0000 
     18 N1         17.8740   -9.7650   86.5690 N.am      1 SX5571      0.0000 
     19 C6         16.8020   -9.1240   85.7710 C.3       1 SX5571      0.0000 
     20 C4         15.6240  -10.0130   85.3640 C.3       1 SX5571      0.0000 
     21 C5         14.4380   -9.1450   84.9750 C.3       1 SX5571      0.0000 
     22 C3         15.1840  -10.9740   86.4660 C.3       1 SX5571      0.0000 
     23 C7         17.4640  -10.8590   87.4760 C.3       1 SX5571      0.0000 
     24 C2         16.3710  -11.7890   86.9470 C.3       1 SX5571      0.0000 
     25 C1         15.9080  -12.7790   88.0080 C.3       1 SX5571      0.0000 
     26 H          16.3538   -4.3583   88.1874 H         1 SX5571      0.0000 
     27 H          17.0487   -4.3319   89.8173 H         1 SX5571      0.0000 
     28 H          17.4080   -6.5099   88.7548 H         1 SX5571      0.0000 
     29 H          18.9498   -5.6985   89.0782 H         1 SX5571      0.0000 
     30 H          19.5938   -7.4344   87.6977 H         1 SX5571      0.0000 
     31 H          20.3980   -5.4318   84.8660 H         1 SX5571      0.0000 
     32 H          21.2677   -6.2590   82.7569 H         1 SX5571      0.0000 
     33 H          20.2617  -10.1848   83.8511 H         1 SX5571      0.0000 
     34 H          17.2379   -8.6865   84.8376 H         1 SX5571      0.0000 
     35 H          16.3901   -8.2463   86.3301 H         1 SX5571      0.0000 
     36 H          15.9099  -10.5937   84.4926 H         1 SX5571      0.0000 
     37 H          14.4198  -11.6399   86.0755 H         1 SX5571      0.0000 
     38 H          14.7743  -10.4039   87.2949 H         1 SX5571      0.0000 
     39 H          17.1118  -10.4344   88.4461 H         1 SX5571      0.0000 
     40 H          18.3495  -11.4859   87.7373 H         1 SX5571      0.0000 
     41 H          16.7666  -12.3437   86.1047 H         1 SX5571      0.0000 
     42 H          14.6555   -8.5410   84.2083 H         1 SX5571      0.0000 
     43 H          13.6494   -9.6951   84.7002 H         1 SX5571      0.0000 
     44 H          14.1399   -8.5628   85.7314 H         1 SX5571      0.0000 
     45 H          16.6636  -13.3382   88.3492 H         1 SX5571      0.0000 
     46 H          15.5061  -12.3159   88.7980 H         1 SX5571      0.0000 
     47 H          15.2156  -13.4071   87.6530 H         1 SX5571      0.0000 
@<TRIPOS>BOND
     1    2    1 ar   
     2    3    2 ar   
     3    4    2 1    
     4    5    4 1    
     5   26    4 1    
     6   27    4 1    
     7    6    5 1    
     8   28    5 1    
     9   29    5 1    
    10    7    6 2    
    11    8    6 am   
    12    9    8 1    
    13   30    8 1    
    14   10    9 ar   
    15   15    9 ar   
    16   11   10 ar   
    17   31   10 1    
    18   12   11 ar   
    19   32   11 1    
    20   13   12 1    
    21   14   12 ar   
    22   15   14 ar   
    23   33   14 1    
    24   16   15 1    
    25   17   16 2    
    26   18   16 am   
    27   19   18 1    
    28   23   18 1    
    29   20   19 1    
    30   34   19 1    
    31   35   19 1    
    32   21   20 1    
    33   22   20 1    
    34   36   20 1    
    35   42   21 1    
    36   43   21 1    
    37   44   21 1    
    38   24   22 1    
    39   37   22 1    
    40   38   22 1    
    41   24   23 1    
    42   39   23 1    
    43   40   23 1    
    44   25   24 1    
    45   41   24 1    
    46   45   25 1    
    47   46   25 1    
    48   47   25 1    
@<TRIPOS>SUBSTRUCTURE
     1 SX5571      1 GROUP   
@<TRIPOS>SET

