#    Name: 4kg1_PCG_2_INTS_M
#    Modification time : Tue Mar 25 07:52:22 2014

@<TRIPOS>MOLECULE
4kg1_PCG_2_INTS_M
   56     0    12     0     0
SMALL
NO_CHARGES


@<TRIPOS>ATOM
      1 N         -18.7340   35.9075    4.8505 N.am      2 SEC2        0.0000 
      2 N         -18.5070   35.6710    6.0950 N.am     10 SEL2        0.0000 
      3 N         -18.9610   36.1440    3.6060 N.am      6 SEP2        0.0000 
      4 N         -19.9720   35.8505    6.4020 N.am      2 SEC2        0.0000 
      5 N         -21.4370   36.0300    6.7090 N.am      6 SEP2        0.0000 
      6 NZ        -15.9360   37.5070    8.2650 N.4       3 LYC4        0.0000 
      7 NZ        -16.3320   36.2200    7.4370 N.4      11 LYL4        0.0000 
      8 NZ        -15.5400   38.7940    9.0930 N.4       7 LYP4        0.0000 
      9 N         -15.5360   36.5000    6.0755 N.am      2 SEC2        0.0000 
     10 N         -16.3320   36.2200    7.4370 N.am     10 SEL2        0.0000 
     11 N         -14.7400   36.7800    4.7140 N.am      6 SEP2        0.0000 
     12 CA        -18.8750   35.6840   10.5140 C.3       4 GLC5        0.0000 
     13 CA        -19.1270   34.4220    9.0010 C.3      12 GLL5        0.0000 
     14 CA        -18.6230   36.9460   12.0270 C.3       8 GLP5        0.0000 
     15 CA        -19.7375   36.2935    8.1230 C.3       4 GLC5        0.0000 
     16 CA        -20.3480   38.1650    7.2450 C.3       8 GLP5        0.0000 
     17 CA        -20.8420   34.7705    7.6990 C.3       4 GLC5        0.0000 
     18 CA        -22.5570   35.1190    6.3970 C.3       8 GLP5        0.0000 
     19 CA        -21.0790   33.8910    9.6925 C.3       4 GLC5        0.0000 
     20 CA        -23.0310   33.3600   10.3840 C.3       8 GLP5        0.0000 
     21 CA        -17.0215   32.2450   10.3375 C.3       4 GLC5        0.0000 
     22 CA        -18.4460   33.0710    8.8530 C.3      12 GLL5        0.0000 
     23 CA        -15.5970   31.4190   11.8220 C.3       8 GLP5        0.0000 
     24 N         -15.7285   33.6335    8.4810 N.am      2 SEC2        0.0000 
     25 N         -16.8530   33.8690    7.2260 N.am     10 SEL2        0.0000 
     26 N         -14.6040   33.3980    9.7360 N.am      6 SEP2        0.0000 
     27 CA        -15.8050   31.4000    9.3130 C.3       4 GLC5        0.0000 
     28 CA        -17.2970   31.4600    7.6510 C.3      12 GLL5        0.0000 
     29 CA        -14.3130   31.3400   10.9750 C.3       8 GLP5        0.0000 
     30 N         -15.2615   32.4240    8.8945 N.am      2 SEC2        0.0000 
     31 N         -15.9190   31.4500    8.0530 N.am     10 SEL2        0.0000 
     32 O         -15.0020   30.6955    7.0490 O.2       1 ALC1        0.0000 
     33 O         -15.9190   31.4500    8.0530 O.2       9 ALL1        0.0000 
     34 O         -14.0850   29.9410    6.0450 O.2       5 ALP1        0.0000 
     35 CA        -18.7990   30.4475   10.6185 C.3       4 GLC5        0.0000 
     36 CA        -18.2320   30.8670    8.6980 C.3      12 GLL5        0.0000 
     37 CA        -19.3660   30.0280   12.5390 C.3       8 GLP5        0.0000 
     38 CA        -20.3485   30.3785    8.7915 C.3       4 GLC5        0.0000 
     39 CA        -22.4650   29.8900    8.8850 C.3       8 GLP5        0.0000 
     40 CA        -16.9145   31.1430   10.2600 C.3       4 GLC5        0.0000 
     41 CA        -18.9375   26.7505    6.6315 C.3       4 GLC5        0.0000 
     42 CA        -20.0960   28.3070    6.8550 C.3      12 GLL5        0.0000 
     43 CA        -17.7790   25.1940    6.4080 C.3       8 GLP5        0.0000 
     44 O         -21.8545   28.9270    3.7810 O.2       1 ALC1        0.0000 
     45 O         -21.0880   28.9670    4.7400 O.2       9 ALL1        0.0000 
     46 O         -22.6210   28.8870    2.8220 O.2       5 ALP1        0.0000 
     47 O         -21.1750   32.6050    4.2230 O.2       1 ALC1        0.0000 
     48 O         -20.8430   31.1590    3.9720 O.2       9 ALL1        0.0000 
     49 O         -21.5070   34.0510    4.4740 O.2       5 ALP1        0.0000 
     50 CA        -18.6470   30.9795    5.6800 C.3       4 GLC5        0.0000 
     51 CA        -19.6050   29.6740    6.9730 C.3      12 GLL5        0.0000 
     52 CA        -17.6890   32.2850    4.3870 C.3       8 GLP5        0.0000 
     53 CA        -16.2550   33.8800    8.8060 C.3       4 GLC5        0.0000 
     54 CA        -17.8100   32.8490    7.5070 C.3      12 GLL5        0.0000 
     55 CA        -14.3820   34.8000    9.4320 C.3       8 GLP5        0.0000 
     56 CA        -17.6212   32.2197    5.9830 C.3       4 GLC5        0.0000 
@<TRIPOS>BOND
@<TRIPOS>SUBSTRUCTURE
     1 ALC1       32 GROUP        1 X    ALC  0     ROOT ALC X 1
     2 SEC2        1 GROUP        1 X    SEC  0     **** SEC X 2
     3 LYC4        6 GROUP        1 X    LYC  0     **** LYC X 4
     4 GLC5       12 GROUP        1 X    GLC  0     **** GLC X 6
     5 ALP1       34 GROUP        1 Y    ALP  0     ROOT ALP Y 8
     6 SEP2        3 GROUP        1 Y    SEP  0     **** SEP Y 9
     7 LYP4        8 GROUP        1 Y    LYP  0     **** LYP Y 11
     8 GLP5       14 GROUP        1 Y    GLP  0     **** GLP Y 13
     9 ALL1       33 GROUP        1 Z    ALL  0     ROOT ALL Z 15
    10 SEL2        2 GROUP        1 Z    SEL  0     **** SEL Z 16
    11 LYL4        7 GROUP        1 Z    LYL  0     **** LYL Z 18
    12 GLL5       13 GROUP        1 Z    GLL  0     **** GLL Z 20
@<TRIPOS>SET

