#    Name: 4kg1_PCG_2_ligand
#    Modification time : Tue Mar 25 07:52:22 2014

@<TRIPOS>MOLECULE
4kg1_PCG_2_ligand
   34    37     1     0     0
SMALL
NO_CHARGES


@<TRIPOS>ATOM
      1 PA        -17.4920   35.3130    7.1530 P.3       1 PCG201      0.0000 
      2 O1A       -18.5070   35.6710    6.0950 O.co2     1 PCG201      0.0000 
      3 O2A       -16.3320   36.2200    7.4370 O.co2     1 PCG201      0.0000 
      4 O5'       -18.1530   35.4010    8.6380 O.3       1 PCG201      0.0000 
      5 C5'       -19.1270   34.4220    9.0010 C.3       1 PCG201      0.0000 
      6 C4'       -18.4460   33.0710    8.8530 C.3       1 PCG201      0.0000 
      7 O4'       -19.1520   31.8810    9.0800 O.3       1 PCG201      0.0000 
      8 C3'       -17.8100   32.8490    7.5070 C.3       1 PCG201      0.0000 
      9 O3'       -16.8530   33.8690    7.2260 O.3       1 PCG201      0.0000 
     10 C2'       -17.2970   31.4600    7.6510 C.3       1 PCG201      0.0000 
     11 O2'       -15.9190   31.4500    8.0530 O.3       1 PCG201      0.0000 
     12 C1'       -18.2320   30.8670    8.6980 C.3       1 PCG201      0.0000 
     13 N9        -18.9400   29.7070    8.1150 N.pl3     1 PCG201      0.0000 
     14 C8        -18.9950   28.5090    8.6690 C.2       1 PCG201      0.0000 
     15 N7        -19.6920   27.6590    7.9160 N.2       1 PCG201      0.0000 
     16 C5        -20.0960   28.3070    6.8550 C.2       1 PCG201      0.0000 
     17 C6        -20.8760   27.9810    5.6580 C.2       1 PCG201      0.0000 
     18 O6        -21.3140   26.8210    5.5120 O.2       1 PCG201      0.0000 
     19 N1        -21.0880   28.9670    4.7400 N.am      1 PCG201      0.0000 
     20 C2        -20.6070   30.2220    4.9060 C.2       1 PCG201      0.0000 
     21 N2        -20.8430   31.1590    3.9720 N.pl3     1 PCG201      0.0000 
     22 N3        -19.8800   30.5760    5.9980 N.2       1 PCG201      0.0000 
     23 C4        -19.6050   29.6740    6.9730 C.2       1 PCG201      0.0000 
     24 H         -19.9874   34.4420    8.3441 H         1 PCG201      0.0000 
     25 H         -19.4473   34.5296   10.0296 H         1 PCG201      0.0000 
     26 H         -17.5478   33.0760    9.5654 H         1 PCG201      0.0000 
     27 H         -18.6277   32.8317    6.7901 H         1 PCG201      0.0000 
     28 H         -17.4700   30.9407    6.7301 H         1 PCG201      0.0000 
     29 H         -17.6307   30.5489    9.5294 H         1 PCG201      0.0000 
     30 H         -18.5734   28.2669    9.5346 H         1 PCG201      0.0000 
     31 H         -21.6448   28.7408    3.8745 H         1 PCG201      0.0000 
     32 H         -21.3802   31.9491    4.2673 H         1 PCG201      0.0000 
     33 H         -20.4603   30.9825    3.0651 H         1 PCG201      0.0000 
     34 H         -15.4430   30.9459    7.3324 H         1 PCG201      0.0000 
@<TRIPOS>BOND
     1    2    1 ar   
     2    3    1 ar   
     3    4    1 1    
     4    9    1 1    
     5    5    4 1    
     6    6    5 1    
     7   24    5 1    
     8   25    5 1    
     9    7    6 1    
    10    8    6 1    
    11   26    6 1    
    12   12    7 1    
    13    9    8 1    
    14   10    8 1    
    15   27    8 1    
    16   11   10 1    
    17   12   10 1    
    18   28   10 1    
    19   34   11 1    
    20   13   12 1    
    21   29   12 1    
    22   14   13 1    
    23   23   13 1    
    24   15   14 2    
    25   30   14 1    
    26   16   15 1    
    27   17   16 1    
    28   23   16 2    
    29   18   17 2    
    30   19   17 am   
    31   20   19 1    
    32   31   19 1    
    33   21   20 1    
    34   22   20 2    
    35   32   21 1    
    36   33   21 1    
    37   23   22 1    
@<TRIPOS>SUBSTRUCTURE
     1 PCG201      1 GROUP   
@<TRIPOS>SET

