#    Name: 4b6r_9ZT_1_INTS_M
#    Modification time : Tue Mar 25 06:48:07 2014

@<TRIPOS>MOLECULE
4b6r_9ZT_1_INTS_M
   60     0     9     0     0
SMALL
NO_CHARGES


@<TRIPOS>ATOM
      1 CA         26.5375   48.5110  -21.5345 C.3       3 GLC5        0.0000 
      2 CA         26.1420   50.1600  -20.2620 C.3       9 GLL5        0.0000 
      3 CA         26.9330   46.8620  -22.8070 C.3       6 GLP5        0.0000 
      4 CA         28.2195   49.7440  -20.3625 C.3       3 GLC5        0.0000 
      5 CA         30.2970   49.3280  -20.4630 C.3       6 GLP5        0.0000 
      6 CA         24.8120   49.1930  -21.2490 C.3       3 GLC5        0.0000 
      7 CA         23.4820   48.2260  -22.2360 C.3       6 GLP5        0.0000 
      8 CA         24.2580   48.7310  -20.2690 C.3       3 GLC5        0.0000 
      9 CA         25.0340   49.2360  -18.3020 C.3       9 GLL5        0.0000 
     10 CA         27.6560   49.6965  -14.9320 C.3       3 GLC5        0.0000 
     11 CA         25.8340   49.2860  -16.0150 C.3       9 GLL5        0.0000 
     12 CA         29.4780   50.1070  -13.8490 C.3       6 GLP5        0.0000 
     13 CA         24.7590   50.8220  -14.6220 C.3       3 GLC5        0.0000 
     14 CA         24.2990   49.4680  -13.9890 C.3       9 GLL5        0.0000 
     15 CA         25.2190   52.1760  -15.2550 C.3       6 GLP5        0.0000 
     16 CA         20.5840   46.2105  -12.9390 C.3       3 GLC5        0.0000 
     17 CA         21.6200   48.1050  -13.1510 C.3       9 GLL5        0.0000 
     18 CA         19.5480   44.3160  -12.7270 C.3       6 GLP5        0.0000 
     19 O          19.9760   47.5530  -14.8220 O.2       1 ALC1        0.0000 
     20 O          20.5140   47.3330  -13.6510 O.2       7 ALL1        0.0000 
     21 O          19.4380   47.7730  -15.9930 O.2       4 ALP1        0.0000 
     22 CA         20.0555   49.6760  -11.4045 C.3       3 GLC5        0.0000 
     23 CA         21.6370   48.1590  -11.6190 C.3       9 GLL5        0.0000 
     24 CA         18.4740   51.1930  -11.1900 C.3       6 GLP5        0.0000 
     25 N          19.6585   47.9825  -10.3915 N.am      2 SEC2        0.0000 
     26 N          20.4340   48.7910  -11.2420 N.am      8 SEL2        0.0000 
     27 N          18.8830   47.1740   -9.5410 N.am      5 SEP2        0.0000 
     28 N          19.5945   49.1400  -12.3595 N.am      2 SEC2        0.0000 
     29 N          18.7550   49.4890  -13.4770 N.am      5 SEP2        0.0000 
     30 CA         22.2680   49.7360   -9.3600 C.3       3 GLC5        0.0000 
     31 CA         22.8490   48.9920  -11.0860 C.3       9 GLL5        0.0000 
     32 CA         21.6870   50.4800   -7.6340 C.3       6 GLP5        0.0000 
     33 N          26.0560   51.3075  -10.2210 N.am      2 SEC2        0.0000 
     34 N          25.2810   50.2850  -10.7250 N.am      8 SEL2        0.0000 
     35 N          26.8310   52.3300   -9.7170 N.am      5 SEP2        0.0000 
     36 N          24.6025   51.4510  -10.5510 N.am      2 SEC2        0.0000 
     37 N          23.9240   52.6170  -10.3770 N.am      5 SEP2        0.0000 
     38 N          27.3115   47.3670  -11.2415 N.am      2 SEC2        0.0000 
     39 N          26.4720   48.5440  -11.3410 N.am      8 SEL2        0.0000 
     40 N          28.1510   46.1900  -11.1420 N.am      5 SEP2        0.0000 
     41 N          27.3785   49.2275  -10.4755 N.am      2 SEC2        0.0000 
     42 N          28.2850   49.9110   -9.6100 N.am      5 SEP2        0.0000 
     43 N          24.3370   47.0955   -9.3605 N.am      2 SEC2        0.0000 
     44 N          24.2750   47.1250  -10.9260 N.am      8 SEL2        0.0000 
     45 N          24.3990   47.0660   -7.7950 N.am      5 SEP2        0.0000 
     46 O          25.2760   46.0670  -10.7615 O.2       1 ALC1        0.0000 
     47 O          24.2750   47.1250  -10.9260 O.2       7 ALL1        0.0000 
     48 O          26.2770   45.0090  -10.5970 O.2       4 ALP1        0.0000 
     49 CA         23.9700   47.2837  -18.6963 C.3       3 GLC5        0.0000 
     50 CA         23.7080   49.2950  -17.8410 C.3       9 GLL5        0.0000 
     51 CA         23.5690   45.3020  -19.3210 C.3       6 GLP5        0.0000 
     52 CA         27.1150   47.8555  -15.8233 C.3       3 GLC5        0.0000 
     53 CA         26.0880   49.2200  -17.3900 C.3       9 GLL5        0.0000 
     54 CA         28.2690   46.4580  -14.9440 C.3       6 GLP5        0.0000 
     55 CA         27.9430   49.7950  -17.0962 C.3       3 GLC5        0.0000 
     56 CA         29.9250   50.3370  -17.4900 C.3       6 GLP5        0.0000 
     57 CA         22.4922   46.1120  -12.3330 C.3       3 GLC5        0.0000 
     58 CA         23.3560   44.0920  -12.2810 C.3       6 GLP5        0.0000 
     59 CA         23.7690   46.1780  -12.3432 C.3       3 GLC5        0.0000 
     60 CA         24.2040   48.1720  -13.1770 C.3       9 GLL5        0.0000 
@<TRIPOS>BOND
@<TRIPOS>SUBSTRUCTURE
     1 ALC1       19 GROUP        1 X    ALC  0     ROOT ALC X 1
     2 SEC2       25 GROUP        1 X    SEC  0     **** SEC X 2
     3 GLC5        1 GROUP        1 X    GLC  0     **** GLC X 6
     4 ALP1       21 GROUP        1 Y    ALP  0     ROOT ALP Y 8
     5 SEP2       27 GROUP        1 Y    SEP  0     **** SEP Y 9
     6 GLP5        3 GROUP        1 Y    GLP  0     **** GLP Y 13
     7 ALL1       20 GROUP        1 Z    ALL  0     ROOT ALL Z 15
     8 SEL2       26 GROUP        1 Z    SEL  0     **** SEL Z 16
     9 GLL5        2 GROUP        1 Z    GLL  0     **** GLL Z 20
@<TRIPOS>SET

