#    Name: 4b6r_9ZT_1_ligand
#    Modification time : Tue Mar 25 06:48:07 2014

@<TRIPOS>MOLECULE
4b6r_9ZT_1_ligand
   39    40     1     0     0
SMALL
NO_CHARGES


@<TRIPOS>ATOM
      1 CAA        26.1420   50.1600  -20.2620 C.3       1 9ZT1158     0.0000 
      2 OAN        25.3160   49.1700  -19.6400 O.3       1 9ZT1158     0.0000 
      3 CAR        25.0340   49.2360  -18.3020 C.ar      1 9ZT1158     0.0000 
      4 CAK        23.7080   49.2950  -17.8410 C.ar      1 9ZT1158     0.0000 
      5 CAI        23.4680   49.3630  -16.4530 C.ar      1 9ZT1158     0.0000 
      6 CAJ        26.0880   49.2200  -17.3900 C.ar      1 9ZT1158     0.0000 
      7 CAH        25.8340   49.2860  -16.0150 C.ar      1 9ZT1158     0.0000 
      8 CAQ        24.5310   49.3520  -15.5140 C.ar      1 9ZT1158     0.0000 
      9 CAL        24.2990   49.4680  -13.9890 C.3       1 9ZT1158     0.0000 
     10 CAP        22.9370   47.6050  -13.7110 C.2       1 9ZT1158     0.0000 
     11 OAC        23.0160   46.7760  -14.6130 O.2       1 9ZT1158     0.0000 
     12 CAT        21.6200   48.1050  -13.1510 C.3       1 9ZT1158     0.0000 
     13 CAU        24.2040   48.1720  -13.1770 C.3       1 9ZT1158     0.0000 
     14 OAF        20.5140   47.3330  -13.6510 O.3       1 9ZT1158     0.0000 
     15 CAS        21.6370   48.1590  -11.6190 C.3       1 9ZT1158     0.0000 
     16 OAE        20.4340   48.7910  -11.2420 O.3       1 9ZT1158     0.0000 
     17 CAM        22.8490   48.9920  -11.0860 C.3       1 9ZT1158     0.0000 
     18 CAV        24.1600   48.3560  -11.6340 C.3       1 9ZT1158     0.0000 
     19 CAO        25.3900   49.1260  -11.1960 C.2       1 9ZT1158     0.0000 
     20 OAB        25.2810   50.2850  -10.7250 O.co2     1 9ZT1158     0.0000 
     21 OAD        26.4720   48.5440  -11.3410 O.co2     1 9ZT1158     0.0000 
     22 OAG        24.2750   47.1250  -10.9260 O.3       1 9ZT1158     0.0000 
     23 H          22.9317   49.2889  -18.4962 H         1 9ZT1158     0.0000 
     24 H          22.4972   49.4223  -16.1088 H         1 9ZT1158     0.0000 
     25 H          27.0581   49.1595  -17.7263 H         1 9ZT1158     0.0000 
     26 H          26.6321   49.2859  -15.3534 H         1 9ZT1158     0.0000 
     27 H          23.3657   50.0610  -13.8248 H         1 9ZT1158     0.0000 
     28 H          25.1175   50.0978  -13.5611 H         1 9ZT1158     0.0000 
     29 H          21.5088   49.1598  -13.4979 H         1 9ZT1158     0.0000 
     30 H          25.0121   47.5379  -13.4617 H         1 9ZT1158     0.0000 
     31 H          21.7085   47.1695  -11.2406 H         1 9ZT1158     0.0000 
     32 H          22.8562   48.9533  -10.0155 H         1 9ZT1158     0.0000 
     33 H          22.7661   49.9983  -11.4438 H         1 9ZT1158     0.0000 
     34 H          27.0545   50.1919  -19.8542 H         1 9ZT1158     0.0000 
     35 H          26.2634   49.9822  -21.2385 H         1 9ZT1158     0.0000 
     36 H          25.7510   51.0765  -20.1773 H         1 9ZT1158     0.0000 
     37 H          20.0063   47.9606  -14.2412 H         1 9ZT1158     0.0000 
     38 H          20.6990   49.4564  -10.5442 H         1 9ZT1158     0.0000 
     39 H          25.1933   46.7900  -11.1371 H         1 9ZT1158     0.0000 
@<TRIPOS>BOND
     1    2    1 1    
     2   34    1 1    
     3   35    1 1    
     4   36    1 1    
     5    3    2 1    
     6    4    3 ar   
     7    6    3 ar   
     8    5    4 ar   
     9   23    4 1    
    10    8    5 ar   
    11   24    5 1    
    12    7    6 ar   
    13   25    6 1    
    14    8    7 ar   
    15   26    7 1    
    16    9    8 1    
    17   13    9 1    
    18   27    9 1    
    19   28    9 1    
    20   11   10 2    
    21   12   10 1    
    22   13   10 1    
    23   14   12 1    
    24   15   12 1    
    25   29   12 1    
    26   18   13 1    
    27   30   13 1    
    28   37   14 1    
    29   16   15 1    
    30   17   15 1    
    31   31   15 1    
    32   38   16 1    
    33   18   17 1    
    34   32   17 1    
    35   33   17 1    
    36   19   18 1    
    37   22   18 1    
    38   20   19 ar   
    39   21   19 ar   
    40   39   22 1    
@<TRIPOS>SUBSTRUCTURE
     1 9ZT1158     1 GROUP   
@<TRIPOS>SET

