#    Name: 3rpy_27Z_1_INTS_M
#    Modification time : Tue Mar 25 11:48:46 2014

@<TRIPOS>MOLECULE
3rpy_27Z_1_INTS_M
   42     0     9     0     0
SMALL
NO_CHARGES


@<TRIPOS>ATOM
      1 N          91.0345   82.4365  -52.1945 N.am      2 SEC2        0.0000 
      2 N          92.0210   81.7540  -51.1040 N.am      8 SEL2        0.0000 
      3 N          90.0480   83.1190  -53.2850 N.am      5 SEP2        0.0000 
      4 N          86.0585   79.7525  -46.3430 N.am      2 SEC2        0.0000 
      5 N          85.9700   80.6000  -45.1070 N.am      8 SEL2        0.0000 
      6 N          86.1470   78.9050  -47.5790 N.am      5 SEP2        0.0000 
      7 CA         92.9710   82.3370  -48.1095 C.3       3 GLC5        0.0000 
      8 CA         92.7240   80.6410  -48.8960 C.3       9 GLL5        0.0000 
      9 CA         93.2180   84.0330  -47.3230 C.3       6 GLP5        0.0000 
     10 O          93.4860   81.7570  -53.7725 O.2       1 ALC1        0.0000 
     11 O          93.5940   80.9370  -52.6470 O.2       7 ALL1        0.0000 
     12 O          93.3780   82.5770  -54.8980 O.2       4 ALP1        0.0000 
     13 N          85.1795   83.3670  -43.4060 N.am      2 SEC2        0.0000 
     14 N          86.5650   83.0100  -44.1800 N.am      8 SEL2        0.0000 
     15 N          83.7940   83.7240  -42.6320 N.am      5 SEP2        0.0000 
     16 O          89.5925   82.8820  -50.2030 O.2       1 ALC1        0.0000 
     17 O          90.6290   82.3810  -49.3290 O.2       7 ALL1        0.0000 
     18 O          88.5560   83.3830  -51.0770 O.2       4 ALP1        0.0000 
     19 O          88.1410   79.4310  -44.0405 O.2       1 ALC1        0.0000 
     20 O          87.9220   80.8690  -43.4730 O.2       7 ALL1        0.0000 
     21 O          88.3600   77.9930  -44.6080 O.2       4 ALP1        0.0000 
     22 CA         89.9065   79.3120  -48.4705 C.3       3 GLC5        0.0000 
     23 CA         90.0270   80.9680  -47.2870 C.3       9 GLL5        0.0000 
     24 CA         89.7860   77.6560  -49.6540 C.3       6 GLP5        0.0000 
     25 O          95.9430   77.5880  -49.1790 O.2       1 ALC1        0.0000 
     26 O          95.1510   78.8240  -49.2010 O.2       7 ALL1        0.0000 
     27 O          96.7350   76.3520  -49.1570 O.2       4 ALP1        0.0000 
     28 CA         94.9673   81.3133  -48.7265 C.3       3 GLC5        0.0000 
     29 CA         93.6250   80.3140  -50.3160 C.3       9 GLL5        0.0000 
     30 CA         96.7600   82.1490  -47.8470 C.3       6 GLP5        0.0000 
     31 CA         94.3340   82.0933  -51.1273 C.3       3 GLC5        0.0000 
     32 CA         95.3040   83.5310  -51.3980 C.3       6 GLP5        0.0000 
     33 CA         92.1994   79.4836  -51.0722 C.3       3 GLC5        0.0000 
     34 CA         93.1030   80.9970  -51.3970 C.3       9 GLL5        0.0000 
     35 CA         91.2600   78.2300  -51.6430 C.3       6 GLP5        0.0000 
     36 CA         91.5785   82.7933  -47.5388 C.3       3 GLC5        0.0000 
     37 CA         89.8510   82.1390  -48.2220 C.3       9 GLL5        0.0000 
     38 CA         88.7053   79.0378  -46.7532 C.3       3 GLC5        0.0000 
     39 CA         87.8060   77.1970  -46.7820 C.3       6 GLP5        0.0000 
     40 CA         86.8936   81.8550  -47.8729 C.3       3 GLC5        0.0000 
     41 CA         88.1210   81.7600  -45.9030 C.3       9 GLL5        0.0000 
     42 CA         85.3850   80.9940  -48.6020 C.3       6 GLP5        0.0000 
@<TRIPOS>BOND
@<TRIPOS>SUBSTRUCTURE
     1 ALC1       10 GROUP        1 X    ALC  0     ROOT ALC X 1
     2 SEC2        1 GROUP        1 X    SEC  0     **** SEC X 2
     3 GLC5        7 GROUP        1 X    GLC  0     **** GLC X 6
     4 ALP1       12 GROUP        1 Y    ALP  0     ROOT ALP Y 8
     5 SEP2        3 GROUP        1 Y    SEP  0     **** SEP Y 9
     6 GLP5        9 GROUP        1 Y    GLP  0     **** GLP Y 13
     7 ALL1       11 GROUP        1 Z    ALL  0     ROOT ALL Z 15
     8 SEL2        2 GROUP        1 Z    SEL  0     **** SEL Z 16
     9 GLL5        8 GROUP        1 Z    GLL  0     **** GLL Z 20
@<TRIPOS>SET

