#    Name: 3rpy_27Z_1_ligand
#    Modification time : Tue Mar 25 11:48:46 2014

@<TRIPOS>MOLECULE
3rpy_27Z_1_ligand
   31    32     1     0     0
SMALL
NO_CHARGES


@<TRIPOS>ATOM
      1 C1         94.8100   79.4090  -50.3500 C.2       1 27Z470      0.0000 
      2 N1         92.0210   81.7540  -51.1040 N.2       1 27Z470      0.0000 
      3 O1         85.9700   80.6000  -45.1070 O.2       1 27Z470      0.0000 
      4 S1         92.7240   80.6410  -48.8960 S.3       1 27Z470      0.0000 
      5 N2         93.5940   80.9370  -52.6470 N.pl3     1 27Z470      0.0000 
      6 O2         86.5650   83.0100  -44.1800 O.2       1 27Z470      0.0000 
      7 S2         87.1590   81.5620  -44.6400 S.o2      1 27Z470      0.0000 
      8 N3         90.6290   82.3810  -49.3290 N.pl3     1 27Z470      0.0000 
      9 N4         87.9220   80.8690  -43.4730 N.pl3     1 27Z470      0.0000 
     10 C12        93.6250   80.3140  -50.3160 C.2       1 27Z470      0.0000 
     11 C13        93.1030   80.9970  -51.3970 C.2       1 27Z470      0.0000 
     12 C14        91.6990   81.6690  -49.8140 C.2       1 27Z470      0.0000 
     13 C15        89.8510   82.1390  -48.2220 C.ar      1 27Z470      0.0000 
     14 C16        90.0270   80.9680  -47.2870 C.ar      1 27Z470      0.0000 
     15 C17        89.1820   80.7890  -46.1620 C.ar      1 27Z470      0.0000 
     16 C18        88.1210   81.7600  -45.9030 C.ar      1 27Z470      0.0000 
     17 C19        87.9320   82.9100  -46.7980 C.ar      1 27Z470      0.0000 
     18 C20        88.7780   83.0970  -47.9370 C.ar      1 27Z470      0.0000 
     19 O21        95.4340   79.2110  -51.4000 O.2       1 27Z470      0.0000 
     20 N22        95.1510   78.8240  -49.2010 N.am      1 27Z470      0.0000 
     21 H          94.4051   80.3662  -52.7742 H         1 27Z470      0.0000 
     22 H          93.1043   81.4686  -53.3381 H         1 27Z470      0.0000 
     23 H          90.3550   83.2737  -49.9102 H         1 27Z470      0.0000 
     24 H          88.3385   81.4771  -42.7972 H         1 27Z470      0.0000 
     25 H          87.9367   79.8692  -43.4893 H         1 27Z470      0.0000 
     26 H          90.7755   80.3171  -47.5002 H         1 27Z470      0.0000 
     27 H          89.2962   80.0078  -45.5371 H         1 27Z470      0.0000 
     28 H          87.1895   83.5689  -46.5921 H         1 27Z470      0.0000 
     29 H          88.6483   83.8852  -48.5550 H         1 27Z470      0.0000 
     30 H          94.6065   79.0752  -48.4008 H         1 27Z470      0.0000 
     31 H          95.9205   78.1868  -49.2431 H         1 27Z470      0.0000 
@<TRIPOS>BOND
     1   10    1 1    
     2   19    1 2    
     3   20    1 am   
     4   11    2 1    
     5   12    2 2    
     6    7    3 2    
     7   10    4 1    
     8   12    4 1    
     9   11    5 1    
    10   21    5 1    
    11   22    5 1    
    12    7    6 2    
    13    9    7 1    
    14   16    7 1    
    15   12    8 1    
    16   13    8 1    
    17   23    8 1    
    18   24    9 1    
    19   25    9 1    
    20   11   10 2    
    21   14   13 ar   
    22   18   13 ar   
    23   15   14 ar   
    24   26   14 1    
    25   16   15 ar   
    26   27   15 1    
    27   17   16 ar   
    28   18   17 ar   
    29   28   17 1    
    30   29   18 1    
    31   30   20 1    
    32   31   20 1    
@<TRIPOS>SUBSTRUCTURE
     1 27Z470      1 GROUP   
@<TRIPOS>SET

