#    Name: 2hy0_306_1_INTS_M
#    Modification time : Tue Mar 25 17:10:09 2014

@<TRIPOS>MOLECULE
2hy0_306_1_INTS_M
   59     0     9     0     0
SMALL
NO_CHARGES


@<TRIPOS>ATOM
      1 O          19.5765    0.9205    8.5480 O.2       1 ALC1        0.0000 
      2 O          19.3170   -0.5600    8.5620 O.2       7 ALL1        0.0000 
      3 O          19.8360    2.4010    8.5340 O.2       4 ALP1        0.0000 
      4 CA         21.5950    1.5285    7.1230 C.3       3 GLC5        0.0000 
      5 CA         21.7690   -0.5100    7.6920 C.3       9 GLL5        0.0000 
      6 CA         21.4210    3.5670    6.5540 C.3       6 GLP5        0.0000 
      7 CA         11.3210    0.1705    9.5990 C.3       3 GLC5        0.0000 
      8 CA         13.0440   -0.3150   10.3990 C.3       9 GLL5        0.0000 
      9 CA          9.5980    0.6560    8.7990 C.3       6 GLP5        0.0000 
     10 O          14.3320    1.3430    8.7625 O.2       1 ALC1        0.0000 
     11 O          15.0920    0.1310    9.2870 O.2       7 ALL1        0.0000 
     12 O          13.5720    2.5550    8.2380 O.2       4 ALP1        0.0000 
     13 N          17.0200    2.0380    7.9485 N.am      2 SEC2        0.0000 
     14 N          16.9310    0.6710    8.1690 N.am      8 SEL2        0.0000 
     15 N          17.1090    3.4050    7.7280 N.am      5 SEP2        0.0000 
     16 CA         12.8490   -4.9620   11.4740 C.3       3 GLC5        0.0000 
     17 CA         12.0700   -3.2150   12.7910 C.3       9 GLL5        0.0000 
     18 CA         13.4550   -6.0990    9.8410 C.3       6 GLP5        0.0000 
     19 CA         11.8505   -3.4170   15.1560 C.3       3 GLC5        0.0000 
     20 CA         12.4160   -4.4350   13.4230 C.3       9 GLL5        0.0000 
     21 CA         11.4580   -3.0090   17.2050 C.3       6 GLP5        0.0000 
     22 CA         17.4592   -1.9532    7.6465 C.3       3 GLC5        0.0000 
     23 CA         17.1210   -1.2750    9.5780 C.3       9 GLL5        0.0000 
     24 CA         17.0750   -2.5570    5.8660 C.3       6 GLP5        0.0000 
     25 CA         19.0993   -3.4557    8.1992 C.3       3 GLC5        0.0000 
     26 CA         19.3980   -2.4860    9.7310 C.3       9 GLL5        0.0000 
     27 CA         18.1680   -4.5310    6.9330 C.3       6 GLP5        0.0000 
     28 CA         20.3188   -1.9555    6.6825 C.3       3 GLC5        0.0000 
     29 CA         20.6140   -1.0180    8.4180 C.3       9 GLL5        0.0000 
     30 CA         19.4460   -3.1470    5.3100 C.3       6 GLP5        0.0000 
     31 CA         21.7343   -0.0800    9.5625 C.3       3 GLC5        0.0000 
     32 CA         22.2770    0.6040   11.0700 C.3       6 GLP5        0.0000 
     33 CA         22.6572   -0.6462    9.5910 C.3       3 GLC5        0.0000 
     34 CA         23.0170   -1.2700    7.7270 C.3       9 GLL5        0.0000 
     35 CA         21.6216   -1.0476   10.2124 C.3       3 GLC5        0.0000 
     36 CA         21.9020   -3.0180    9.2440 C.3       9 GLL5        0.0000 
     37 CA         13.5337   -4.3193   10.7860 C.3       3 GLC5        0.0000 
     38 CA         14.2980   -2.7250   11.5700 C.3       9 GLL5        0.0000 
     39 CA         10.7952   -1.5893   10.8145 C.3       3 GLC5        0.0000 
     40 CA         12.9270   -2.3540   11.8920 C.3       9 GLL5        0.0000 
     41 CA          8.9540   -1.4310   10.0230 C.3       6 GLP5        0.0000 
     42 CA         12.9258   -0.4888   13.3470 C.3       3 GLC5        0.0000 
     43 CA         12.3460   -1.1410   11.3200 C.3       9 GLL5        0.0000 
     44 CA         13.2150    0.7700   15.0880 C.3       6 GLP5        0.0000 
     45 CA         11.9505    1.1515   11.2112 C.3       3 GLC5        0.0000 
     46 CA         11.2060    3.0310   11.5630 C.3       6 GLP5        0.0000 
     47 CA         13.5790   -0.6630    8.3810 C.3       3 GLC5        0.0000 
     48 CA         14.3780   -0.7090   10.1090 C.3       9 GLL5        0.0000 
     49 CA         13.4470   -0.8140    6.5080 C.3       6 GLP5        0.0000 
     50 CA         15.3215   -0.6927   11.8720 C.3       3 GLC5        0.0000 
     51 CA         15.0320   -1.8760   10.6760 C.3       9 GLL5        0.0000 
     52 CA         15.9780    0.9150   12.6210 C.3       6 GLP5        0.0000 
     53 CA         14.7572    0.0983   11.5526 C.3       3 GLC5        0.0000 
     54 CA         16.3637   -0.3965   11.3142 C.3       3 GLC5        0.0000 
     55 CA         16.3780   -2.1410   10.4370 C.3       9 GLL5        0.0000 
     56 CA         14.8083   -3.0969    9.2324 C.3       3 GLC5        0.0000 
     57 CA         14.0750   -4.4770    8.0500 C.3       6 GLP5        0.0000 
     58 CA         21.3590   -4.0330    5.6335 C.3       3 GLC5        0.0000 
     59 CA         23.2000   -4.5960    6.6450 C.3       9 GLL5        0.0000 
@<TRIPOS>BOND
@<TRIPOS>SUBSTRUCTURE
     1 ALC1        1 GROUP        1 X    ALC  0     ROOT ALC X 1
     2 SEC2       13 GROUP        1 X    SEC  0     **** SEC X 2
     3 GLC5        4 GROUP        1 X    GLC  0     **** GLC X 6
     4 ALP1        3 GROUP        1 Y    ALP  0     ROOT ALP Y 8
     5 SEP2       15 GROUP        1 Y    SEP  0     **** SEP Y 9
     6 GLP5        6 GROUP        1 Y    GLP  0     **** GLP Y 13
     7 ALL1        2 GROUP        1 Z    ALL  0     ROOT ALL Z 15
     8 SEL2       14 GROUP        1 Z    SEL  0     **** SEL Z 16
     9 GLL5        5 GROUP        1 Z    GLL  0     **** GLL Z 20
@<TRIPOS>SET

