#    Name: 2hy0_306_1_ligand
#    Modification time : Tue Mar 25 17:10:09 2014

@<TRIPOS>MOLECULE
2hy0_306_1_ligand
   58    63     1     0     0
SMALL
NO_CHARGES


@<TRIPOS>ATOM
      1 C          12.4160   -4.4350   13.4230 C.2       1 306324      0.0000 
      2 C1         12.0700   -3.2150   12.7910 C.2       1 306324      0.0000 
      3 C2         10.6990   -3.0860   13.1050 C.2       1 306324      0.0000 
      4 N          10.3040   -4.1050   13.9200 N.2       1 306324      0.0000 
      5 N3         11.3240   -5.0030   13.9820 N.pl3     1 306324      0.0000 
      6 C4         18.5660   -1.4240    9.2760 C.2       1 306324      0.0000 
      7 C5         19.3980   -2.4860    9.7310 C.2       1 306324      0.0000 
      8 N6         19.3170   -0.5600    8.5620 N.pl3     1 306324      0.0000 
      9 C7         20.6630   -2.2750    9.2000 C.ar      1 306324      0.0000 
     10 C8         20.6140   -1.0180    8.4180 C.ar      1 306324      0.0000 
     11 C9         21.7690   -0.5100    7.6920 C.ar      1 306324      0.0000 
     12 C10        23.0170   -1.2700    7.7270 C.ar      1 306324      0.0000 
     13 C11        23.0580   -2.5230    8.4970 C.ar      1 306324      0.0000 
     14 C12        21.9020   -3.0180    9.2440 C.ar      1 306324      0.0000 
     15 C13        24.3030   -3.3970    8.4600 C.3       1 306324      0.0000 
     16 C14        12.9270   -2.3540   11.8920 C.ar      1 306324      0.0000 
     17 C15        12.3460   -1.1410   11.3200 C.ar      1 306324      0.0000 
     18 C16        13.0440   -0.3150   10.3990 C.ar      1 306324      0.0000 
     19 C17        14.2980   -2.7250   11.5700 C.ar      1 306324      0.0000 
     20 C18        15.0320   -1.8760   10.6760 C.ar      1 306324      0.0000 
     21 C19        14.3780   -0.7090   10.1090 C.ar      1 306324      0.0000 
     22 N20        15.0920    0.1310    9.2870 N.am      1 306324      0.0000 
     23 C21        16.4000   -0.1010    8.9610 C.2       1 306324      0.0000 
     24 C22        17.1210   -1.2750    9.5780 C.2       1 306324      0.0000 
     25 C23        16.3780   -2.1410   10.4370 C.2       1 306324      0.0000 
     26 O          16.9310    0.6710    8.1690 O.2       1 306324      0.0000 
     27 N24        24.4930   -4.1030    7.1640 N.4       1 306324      0.0000 
     28 C25        25.4530   -5.2230    7.2650 C.3       1 306324      0.0000 
     29 C26        25.6250   -5.9000    5.8940 C.3       1 306324      0.0000 
     30 C27        24.2870   -6.4300    5.3790 C.3       1 306324      0.0000 
     31 C28        23.3440   -5.2420    5.2690 C.3       1 306324      0.0000 
     32 C29        23.2000   -4.5960    6.6450 C.3       1 306324      0.0000 
     33 H          13.3172   -4.7820   13.4331 H         1 306324      0.0000 
     34 H          10.1452   -2.3700   12.7764 H         1 306324      0.0000 
     35 H          11.2723   -5.8853   14.3582 H         1 306324      0.0000 
     36 H          19.1226   -3.1879   10.2860 H         1 306324      0.0000 
     37 H          19.0016    0.2870    8.1862 H         1 306324      0.0000 
     38 H          21.7123    0.3433    7.1778 H         1 306324      0.0000 
     39 H          23.8229   -0.9510    7.2426 H         1 306324      0.0000 
     40 H          21.9759   -3.8624    9.7772 H         1 306324      0.0000 
     41 H          24.2385   -4.1334    9.2817 H         1 306324      0.0000 
     42 H          25.1827   -2.7628    8.6734 H         1 306324      0.0000 
     43 H          11.3879   -0.8886   11.6079 H         1 306324      0.0000 
     44 H          12.6296    0.4808    9.9872 H         1 306324      0.0000 
     45 H          14.7042   -3.5440   11.9630 H         1 306324      0.0000 
     46 H          14.6126    0.9811    8.8967 H         1 306324      0.0000 
     47 H          16.8426   -2.9399   10.8626 H         1 306324      0.0000 
     48 H          24.8907   -3.3753    6.4339 H         1 306324      0.0000 
     49 H          25.0981   -5.9718    7.9740 H         1 306324      0.0000 
     50 H          26.4291   -4.8652    7.5945 H         1 306324      0.0000 
     51 H          26.3271   -6.7245    5.9916 H         1 306324      0.0000 
     52 H          26.0225   -5.1748    5.1881 H         1 306324      0.0000 
     53 H          23.8919   -7.1441    6.0781 H         1 306324      0.0000 
     54 H          24.4268   -6.8739    4.4105 H         1 306324      0.0000 
     55 H          22.3745   -5.5787    4.9279 H         1 306324      0.0000 
     56 H          23.7503   -4.5193    4.5745 H         1 306324      0.0000 
     57 H          22.4803   -3.7684    6.5653 H         1 306324      0.0000 
     58 H          22.7709   -5.3388    7.3330 H         1 306324      0.0000 
@<TRIPOS>BOND
     1    2    1 2    
     2    5    1 1    
     3   33    1 1    
     4    3    2 1    
     5   16    2 1    
     6    4    3 2    
     7   34    3 1    
     8    5    4 1    
     9   35    5 1    
    10    7    6 2    
    11    8    6 1    
    12   24    6 1    
    13    9    7 1    
    14   36    7 1    
    15   10    8 1    
    16   37    8 1    
    17   10    9 ar   
    18   14    9 ar   
    19   11   10 ar   
    20   12   11 ar   
    21   38   11 1    
    22   13   12 ar   
    23   39   12 1    
    24   14   13 ar   
    25   15   13 1    
    26   40   14 1    
    27   27   15 1    
    28   41   15 1    
    29   42   15 1    
    30   17   16 ar   
    31   19   16 ar   
    32   18   17 ar   
    33   43   17 1    
    34   21   18 ar   
    35   44   18 1    
    36   20   19 ar   
    37   45   19 1    
    38   21   20 ar   
    39   25   20 1    
    40   22   21 1    
    41   23   22 am   
    42   46   22 1    
    43   24   23 1    
    44   26   23 2    
    45   25   24 2    
    46   47   25 1    
    47   28   27 1    
    48   32   27 1    
    49   48   27 1    
    50   29   28 1    
    51   49   28 1    
    52   50   28 1    
    53   30   29 1    
    54   51   29 1    
    55   52   29 1    
    56   31   30 1    
    57   53   30 1    
    58   54   30 1    
    59   32   31 1    
    60   55   31 1    
    61   56   31 1    
    62   57   32 1    
    63   58   32 1    
@<TRIPOS>SUBSTRUCTURE
     1 306324      1 GROUP   
@<TRIPOS>SET

