#    Name: 3qbw_ADP_2_INTS_M
#    Modification time : Tue Mar 25 09:35:19 2014

@<TRIPOS>MOLECULE
3qbw_ADP_2_INTS_M
   50     0     9     0     0
SMALL
NO_CHARGES


@<TRIPOS>ATOM
      1 N          33.4375   65.8735  124.1220 N.am      2 SEC2        0.0000 
      2 N          34.8260   65.0290  124.5080 N.am      8 SEL2        0.0000 
      3 N          32.0490   66.7180  123.7360 N.am      5 SEP2        0.0000 
      4 N          32.3825   65.3350  124.5950 N.am      2 SEC2        0.0000 
      5 N          32.7160   63.9520  125.4540 N.am      8 SEL2        0.0000 
      6 N          32.6915   65.3920  125.9795 N.am      2 SEC2        0.0000 
      7 N          32.6670   66.8320  126.5050 N.am      5 SEP2        0.0000 
      8 N          31.9760   64.3790  126.7925 N.am      2 SEC2        0.0000 
      9 N          31.2360   64.8060  128.1310 N.am      5 SEP2        0.0000 
     10 N          36.8825   62.9555  129.5505 N.am      2 SEC2        0.0000 
     11 N          36.4910   62.7930  128.1770 N.am      8 SEL2        0.0000 
     12 N          37.2740   63.1180  130.9240 N.am      5 SEP2        0.0000 
     13 N          36.9180   64.1895  129.7065 N.am      2 SEC2        0.0000 
     14 N          36.5620   65.2610  128.4890 N.am      8 SEL2        0.0000 
     15 CA         34.0490   67.8860  130.2670 C.3       3 GLC5        0.0000 
     16 CA         35.9720   67.5020  129.2620 C.3       9 GLL5        0.0000 
     17 CA         32.1260   68.2700  131.2720 C.3       6 GLP5        0.0000 
     18 O          34.0050   70.0865  128.5085 O.2       1 ALC1        0.0000 
     19 O          35.3920   69.5840  128.2550 O.2       7 ALL1        0.0000 
     20 O          32.6180   70.5890  128.7620 O.2       4 ALP1        0.0000 
     21 CA         34.1925   68.8925  130.8720 C.3       3 GLC5        0.0000 
     22 CA         36.2590   69.5150  130.4720 C.3       9 GLL5        0.0000 
     23 O          34.0605   70.9220  130.5930 O.2       1 ALC1        0.0000 
     24 O          34.9590   69.8550  130.8320 O.2       7 ALL1        0.0000 
     25 O          33.1620   71.9890  130.3540 O.2       4 ALP1        0.0000 
     26 CA         37.2435   66.3680  131.3835 C.3       3 GLC5        0.0000 
     27 CA         36.6790   68.3470  131.3620 C.3       9 GLL5        0.0000 
     28 CA         37.8080   64.3890  131.4050 C.3       6 GLP5        0.0000 
     29 CA         39.8955   71.9090  134.8510 C.3       3 GLC5        0.0000 
     30 CA         40.3980   69.7850  134.3520 C.3       9 GLL5        0.0000 
     31 CA         39.3930   74.0330  135.3500 C.3       6 GLP5        0.0000 
     32 N          39.6290   71.3155  136.2090 N.am      2 SEC2        0.0000 
     33 N          39.6260   70.2630  135.3310 N.am      8 SEL2        0.0000 
     34 N          39.6320   72.3680  137.0870 N.am      5 SEP2        0.0000 
     35 CA         38.8135   72.1275  135.2930 C.3       3 GLC5        0.0000 
     36 CA         38.2340   70.2220  135.2360 C.3       9 GLL5        0.0000 
     37 CA         38.9030   71.0005  136.8340 C.3       3 GLC5        0.0000 
     38 CA         39.5720   71.7790  138.4320 C.3       6 GLP5        0.0000 
     39 CA         37.8185   69.0585  136.5870 C.3       3 GLC5        0.0000 
     40 CA         37.4030   67.8950  137.9380 C.3       6 GLP5        0.0000 
     41 CA         34.8330   67.3380  127.1517 C.3       3 GLC5        0.0000 
     42 CA         33.4050   67.6150  125.5800 C.3       6 GLP5        0.0000 
     43 CA         37.0345   65.7250  130.0643 C.3       3 GLC5        0.0000 
     44 CA         36.5500   66.6200  128.1850 C.3       9 GLL5        0.0000 
     45 CA         36.2435   71.1385  130.1985 C.3       3 GLC5        0.0000 
     46 CA         36.3190   68.9730  129.0820 C.3       9 GLL5        0.0000 
     47 CA         36.1980   73.0330  130.6200 C.3       6 GLP5        0.0000 
     48 CA         40.0726   67.7879  134.2916 C.3       3 GLC5        0.0000 
     49 CA         39.7810   69.2020  133.1750 C.3       9 GLL5        0.0000 
     50 CA         40.8960   66.2440  135.1590 C.3       6 GLP5        0.0000 
@<TRIPOS>BOND
@<TRIPOS>SUBSTRUCTURE
     1 ALC1       18 GROUP        1 X    ALC  0     ROOT ALC X 1
     2 SEC2        1 GROUP        1 X    SEC  0     **** SEC X 2
     3 GLC5       15 GROUP        1 X    GLC  0     **** GLC X 6
     4 ALP1       20 GROUP        1 Y    ALP  0     ROOT ALP Y 8
     5 SEP2        3 GROUP        1 Y    SEP  0     **** SEP Y 9
     6 GLP5       17 GROUP        1 Y    GLP  0     **** GLP Y 13
     7 ALL1       19 GROUP        1 Z    ALL  0     ROOT ALL Z 15
     8 SEL2        2 GROUP        1 Z    SEL  0     **** SEL Z 16
     9 GLL5       16 GROUP        1 Z    GLL  0     **** GLL Z 20
@<TRIPOS>SET

