#    Name: 3qbw_ADP_2_ligand
#    Modification time : Tue Mar 25 09:35:19 2014

@<TRIPOS>MOLECULE
3qbw_ADP_2_ligand
   39    41     1     0     0
SMALL
NO_CHARGES


@<TRIPOS>ATOM
      1 PB         34.2380   63.9340  125.4750 P.3       1 ADP602      0.0000 
      2 O1B        34.7190   62.5130  124.9910 O.co2     1 ADP602      0.0000 
      3 O2B        34.8260   65.0290  124.5080 O.co2     1 ADP602      0.0000 
      4 O3B        32.7160   63.9520  125.4540 O.co2     1 ADP602      0.0000 
      5 PA         36.2410   64.1410  127.4330 P.3       1 ADP602      0.0000 
      6 O1A        36.4910   62.7930  128.1770 O.co2     1 ADP602      0.0000 
      7 O2A        37.1490   64.2800  126.2210 O.co2     1 ADP602      0.0000 
      8 O3A        34.7340   64.2250  126.9570 O.3       1 ADP602      0.0000 
      9 O5'        36.5620   65.2610  128.4890 O.3       1 ADP602      0.0000 
     10 C5'        36.5500   66.6200  128.1850 C.3       1 ADP602      0.0000 
     11 C4'        35.9720   67.5020  129.2620 C.3       1 ADP602      0.0000 
     12 O4'        36.5290   67.1120  130.5680 O.3       1 ADP602      0.0000 
     13 C3'        36.3190   68.9730  129.0820 C.3       1 ADP602      0.0000 
     14 O3'        35.3920   69.5840  128.2550 O.3       1 ADP602      0.0000 
     15 C2'        36.2590   69.5150  130.4720 C.3       1 ADP602      0.0000 
     16 O2'        34.9590   69.8550  130.8320 O.3       1 ADP602      0.0000 
     17 C1'        36.6790   68.3470  131.3620 C.3       1 ADP602      0.0000 
     18 N9         38.0490   68.5400  131.8110 N.pl3     1 ADP602      0.0000 
     19 C8         39.1900   68.2250  131.1620 C.2       1 ADP602      0.0000 
     20 N7         40.3050   68.6200  131.9980 N.2       1 ADP602      0.0000 
     21 C5         39.7810   69.2020  133.1750 C.ar      1 ADP602      0.0000 
     22 C6         40.3980   69.7850  134.3520 C.ar      1 ADP602      0.0000 
     23 N6         41.8280   69.8620  134.4970 N.pl3     1 ADP602      0.0000 
     24 N1         39.6260   70.2630  135.3310 N.ar      1 ADP602      0.0000 
     25 C2         38.2340   70.2220  135.2360 C.ar      1 ADP602      0.0000 
     26 N3         37.6240   69.6550  134.0870 N.ar      1 ADP602      0.0000 
     27 C4         38.4090   69.1700  133.0850 C.ar      1 ADP602      0.0000 
     28 H          35.9733   66.8282  127.2432 H         1 ADP602      0.0000 
     29 H          37.5828   67.0036  127.9635 H         1 ADP602      0.0000 
     30 H          34.9040   67.4015  129.2887 H         1 ADP602      0.0000 
     31 H          37.3242   69.0253  128.7363 H         1 ADP602      0.0000 
     32 H          36.9640   70.2858  130.5933 H         1 ADP602      0.0000 
     33 H          35.9996   68.3211  132.2002 H         1 ADP602      0.0000 
     34 H          39.3017   67.8200  130.3157 H         1 ADP602      0.0000 
     35 H          42.1628   70.2738  135.3445 H         1 ADP602      0.0000 
     36 H          42.3675   69.4972  133.7381 H         1 ADP602      0.0000 
     37 H          37.6484   70.5954  135.9839 H         1 ADP602      0.0000 
     38 H          34.5850   69.7226  128.8290 H         1 ADP602      0.0000 
     39 H          34.7995   70.7484  130.4120 H         1 ADP602      0.0000 
@<TRIPOS>BOND
     1    2    1 ar   
     2    3    1 ar   
     3    4    1 ar   
     4    8    1 1    
     5    6    5 ar   
     6    7    5 ar   
     7    8    5 1    
     8    9    5 1    
     9   10    9 1    
    10   11   10 1    
    11   28   10 1    
    12   29   10 1    
    13   12   11 1    
    14   13   11 1    
    15   30   11 1    
    16   17   12 1    
    17   14   13 1    
    18   15   13 1    
    19   31   13 1    
    20   38   14 1    
    21   16   15 1    
    22   17   15 1    
    23   32   15 1    
    24   39   16 1    
    25   18   17 1    
    26   33   17 1    
    27   19   18 1    
    28   27   18 1    
    29   20   19 2    
    30   34   19 1    
    31   21   20 1    
    32   22   21 ar   
    33   27   21 ar   
    34   23   22 1    
    35   24   22 ar   
    36   35   23 1    
    37   36   23 1    
    38   25   24 ar   
    39   26   25 ar   
    40   37   25 1    
    41   27   26 ar   
@<TRIPOS>SUBSTRUCTURE
     1 ADP602      1 GROUP   
@<TRIPOS>SET

