#    Name: 3srz_UPG_1_INTS_M
#    Modification time : Mon Mar 24 18:15:35 2014

@<TRIPOS>MOLECULE
3srz_UPG_1_INTS_M
   90     0    12     0     0
SMALL
NO_CHARGES


@<TRIPOS>ATOM
      1 O         -29.7850  -39.9030   -6.6940 O.2       1 ALC1        0.0000 
      2 O         -29.7480  -40.1210   -8.1600 O.2       9 ALL1        0.0000 
      3 O         -29.8220  -39.6850   -5.2280 O.2       5 ALP1        0.0000 
      4 CA        -28.3390  -39.8255  -10.0175 C.3       4 GLC5        0.0000 
      5 CA        -29.0700  -41.5370   -9.9400 C.3      12 GLL5        0.0000 
      6 CA        -27.6080  -38.1140  -10.0950 C.3       8 GLP5        0.0000 
      7 CA        -29.5700  -39.5185  -10.5715 C.3       4 GLC5        0.0000 
      8 CA        -30.3060  -41.3900  -10.5640 C.3      12 GLL5        0.0000 
      9 CA        -28.8340  -37.6470  -10.5790 C.3       8 GLP5        0.0000 
     10 CA        -31.7945  -42.8980  -10.4355 C.3       4 GLC5        0.0000 
     11 CA        -33.2830  -44.4060  -10.3070 C.3       8 GLP5        0.0000 
     12 N         -31.7760  -38.4765   -6.9615 N.am      2 SEC2        0.0000 
     13 N         -31.8270  -39.2560   -8.2490 N.am     10 SEL2        0.0000 
     14 N         -31.7250  -37.6970   -5.6740 N.am      6 SEP2        0.0000 
     15 N         -26.8825  -40.9670   -6.9005 N.am      2 SEC2        0.0000 
     16 N         -27.6950  -41.0180   -8.1640 N.am     10 SEL2        0.0000 
     17 N         -26.0700  -40.9160   -5.6370 N.am      6 SEP2        0.0000 
     18 CA        -32.9155  -42.4050  -10.4385 C.3       4 GLC5        0.0000 
     19 CA        -32.5480  -40.4040  -10.5700 C.3      12 GLL5        0.0000 
     20 CA        -31.1115  -37.8800  -10.4410 C.3       4 GLC5        0.0000 
     21 CA        -32.5980  -38.9690  -11.0570 C.3      12 GLL5        0.0000 
     22 CA        -29.6250  -36.7910   -9.8250 C.3       8 GLP5        0.0000 
     23 N         -34.9255  -39.2415  -10.2010 N.am      2 SEC2        0.0000 
     24 N         -33.8380  -38.3740  -10.6340 N.am     10 SEL2        0.0000 
     25 N         -36.0130  -40.1090   -9.7680 N.am      6 SEP2        0.0000 
     26 O         -33.6785  -37.3785  -10.0540 O.2       1 ALC1        0.0000 
     27 O         -33.8380  -38.3740  -10.6340 O.2       9 ALL1        0.0000 
     28 O         -33.5190  -36.3830   -9.4740 O.2       5 ALP1        0.0000 
     29 CA        -30.6365  -38.4000  -11.5760 C.3       4 GLC5        0.0000 
     30 CA        -32.4390  -39.1530  -12.5730 C.3      12 GLL5        0.0000 
     31 N         -33.0190  -36.7065  -14.1310 N.am      2 SEC2        0.0000 
     32 N         -32.9770  -38.1100  -13.3910 N.am     10 SEL2        0.0000 
     33 N         -33.0610  -35.3030  -14.8710 N.am      6 SEP2        0.0000 
     34 O         -34.3150  -38.6090  -14.0355 O.2       1 ALC1        0.0000 
     35 O         -32.9770  -38.1100  -13.3910 O.2       9 ALL1        0.0000 
     36 O         -35.6530  -39.1080  -14.6800 O.2       5 ALP1        0.0000 
     37 CA        -33.6820  -39.3985  -15.2260 C.3       4 GLC5        0.0000 
     38 CA        -32.7090  -41.1010  -14.1550 C.3      12 GLL5        0.0000 
     39 CA        -34.6550  -37.6960  -16.2970 C.3       8 GLP5        0.0000 
     40 Zn        -31.1100  -40.6690  -17.4635 Zn        3 ZIC7        0.0000 
     41 Zn        -30.9680  -40.7170  -16.4200 Zn       11 ZIL7        0.0000 
     42 Zn        -31.2520  -40.6210  -18.5070 Zn        7 ZIP7        0.0000 
     43 N         -29.9115  -44.5805  -16.3710 N.am      2 SEC2        0.0000 
     44 N         -30.7720  -43.2850  -15.9140 N.am     10 SEL2        0.0000 
     45 N         -29.0510  -45.8760  -16.8280 N.am      6 SEP2        0.0000 
     46 Zn        -31.5315  -41.6610  -18.3715 Zn        3 ZIC7        0.0000 
     47 Zn        -31.8110  -42.7010  -18.2360 Zn       11 ZIL7        0.0000 
     48 N         -30.0175  -45.4410  -17.3270 N.am      2 SEC2        0.0000 
     49 N         -30.9840  -45.0060  -17.8260 N.am     10 SEL2        0.0000 
     50 N         -31.5050  -45.9040  -16.6065 N.am      2 SEC2        0.0000 
     51 N         -32.0260  -46.8020  -15.3870 N.am      6 SEP2        0.0000 
     52 N         -32.5250  -45.4960  -15.9605 N.am      2 SEC2        0.0000 
     53 N         -33.0240  -44.1900  -16.5340 N.am     10 SEL2        0.0000 
     54 CA        -33.2245  -46.4445  -16.2225 C.3       4 GLC5        0.0000 
     55 CA        -34.1180  -44.7640  -17.2460 C.3      12 GLL5        0.0000 
     56 CA        -32.3310  -48.1250  -15.1990 C.3       8 GLP5        0.0000 
     57 CA        -36.3130  -43.6130  -19.2440 C.3       4 GLC5        0.0000 
     58 CA        -35.2110  -43.7160  -17.3360 C.3      12 GLL5        0.0000 
     59 CA        -37.4150  -43.5100  -21.1520 C.3       8 GLP5        0.0000 
     60 CA        -35.8605  -48.0675  -13.4475 C.3       4 GLC5        0.0000 
     61 CA        -35.5030  -46.6480  -14.3310 C.3      12 GLL5        0.0000 
     62 CA        -36.2180  -49.4870  -12.5640 C.3       8 GLP5        0.0000 
     63 N         -37.4535  -41.8295  -15.0535 N.am      2 SEC2        0.0000 
     64 N         -36.4560  -42.1690  -15.9930 N.am     10 SEL2        0.0000 
     65 N         -38.4510  -41.4900  -14.1140 N.am      6 SEP2        0.0000 
     66 O         -36.0545  -40.6385  -15.3365 O.2       1 ALC1        0.0000 
     67 O         -36.4560  -42.1690  -15.9930 O.2       9 ALL1        0.0000 
     68 O         -35.8070  -41.0900  -16.3000 O.2       1 ALC1        0.0000 
     69 O         -35.1580  -40.0110  -16.6070 O.2       5 ALP1        0.0000 
     70 N         -36.4445  -42.6005  -13.0375 N.am      2 SEC2        0.0000 
     71 N         -35.9990  -43.8540  -13.6590 N.am     10 SEL2        0.0000 
     72 N         -36.8900  -41.3470  -12.4160 N.am      6 SEP2        0.0000 
     73 O         -37.0625  -44.1275  -13.1355 O.2       1 ALC1        0.0000 
     74 O         -35.9990  -43.8540  -13.6590 O.2       9 ALL1        0.0000 
     75 O         -38.1260  -44.4010  -12.6120 O.2       5 ALP1        0.0000 
     76 N         -33.3375  -46.3185  -15.9250 N.am      2 SEC2        0.0000 
     77 N         -34.6490  -45.8350  -16.4630 N.am     10 SEL2        0.0000 
     78 O         -37.4720  -46.7490  -13.5270 O.2       1 ALC1        0.0000 
     79 O         -36.8400  -46.9160  -14.7750 O.2       9 ALL1        0.0000 
     80 O         -38.1040  -46.5820  -12.2790 O.2       5 ALP1        0.0000 
     81 CA        -30.0085  -42.4018   -8.6355 C.3       4 GLC5        0.0000 
     82 CA        -30.3290  -43.3400   -7.0190 C.3       8 GLP5        0.0000 
     83 CA        -28.3900  -42.2147  -11.6455 C.3       4 GLC5        0.0000 
     84 CA        -27.0920  -42.9660  -13.0390 C.3       8 GLP5        0.0000 
     85 CA        -34.1080  -40.5053   -9.9842 C.3       4 GLC5        0.0000 
     86 CA        -35.6430  -41.3240   -9.1550 C.3       8 GLP5        0.0000 
     87 CA        -33.9847  -45.5260  -13.1557 C.3       4 GLC5        0.0000 
     88 CA        -34.9220  -45.4660  -15.0980 C.3      12 GLL5        0.0000 
     89 CA        -32.7570  -44.9950  -11.5970 C.3       8 GLP5        0.0000 
     90 CA        -33.7717  -47.0910  -14.9567 C.3       4 GLC5        0.0000 
@<TRIPOS>BOND
@<TRIPOS>SUBSTRUCTURE
     1 ALC1        1 GROUP        1 X    ALC  0     ROOT ALC X 1
     2 SEC2       12 GROUP        1 X    SEC  0     **** SEC X 2
     3 ZIC7       40 GROUP        1 X    ZIC  0     **** ZIC X 5
     4 GLC5        4 GROUP        1 X    GLC  0     **** GLC X 6
     5 ALP1        3 GROUP        1 Y    ALP  0     ROOT ALP Y 8
     6 SEP2       14 GROUP        1 Y    SEP  0     **** SEP Y 9
     7 ZIP7       42 GROUP        1 Y    ZIP  0     **** ZIP Y 12
     8 GLP5        6 GROUP        1 Y    GLP  0     **** GLP Y 13
     9 ALL1        2 GROUP        1 Z    ALL  0     ROOT ALL Z 15
    10 SEL2       13 GROUP        1 Z    SEL  0     **** SEL Z 16
    11 ZIL7       41 GROUP        1 Z    ZIL  0     **** ZIL Z 19
    12 GLL5        5 GROUP        1 Z    GLL  0     **** GLL Z 20
@<TRIPOS>SET

