#    Name: 3srz_UPG_1_ligand
#    Modification time : Mon Mar 24 18:15:35 2014

@<TRIPOS>MOLECULE
3srz_UPG_1_ligand
   58    60     1     0     0
SMALL
NO_CHARGES


@<TRIPOS>ATOM
      1 N1        -31.2290  -40.6180   -9.9780 N.am      1 UPG556      0.0000 
      2 C2        -30.9410  -39.9700   -8.7610 C.2       1 UPG556      0.0000 
      3 N3        -29.7480  -40.1210   -8.1600 N.am      1 UPG556      0.0000 
      4 C4        -28.8080  -40.8880   -8.7270 C.2       1 UPG556      0.0000 
      5 C5        -29.0700  -41.5370   -9.9400 C.2       1 UPG556      0.0000 
      6 C6        -30.3060  -41.3900  -10.5640 C.2       1 UPG556      0.0000 
      7 O2        -31.8270  -39.2560   -8.2490 O.2       1 UPG556      0.0000 
      8 O4        -27.6950  -41.0180   -8.1640 O.2       1 UPG556      0.0000 
      9 C1C       -32.5480  -40.4040  -10.5700 C.3       1 UPG556      0.0000 
     10 C2C       -32.5980  -38.9690  -11.0570 C.3       1 UPG556      0.0000 
     11 O2C       -33.8380  -38.3740  -10.6340 O.3       1 UPG556      0.0000 
     12 C3C       -32.4390  -39.1530  -12.5730 C.3       1 UPG556      0.0000 
     13 C4C       -33.1360  -40.4700  -12.8370 C.3       1 UPG556      0.0000 
     14 O4C       -32.7470  -41.2560  -11.7090 O.3       1 UPG556      0.0000 
     15 O3C       -32.9770  -38.1100  -13.3910 O.3       1 UPG556      0.0000 
     16 C5C       -32.7090  -41.1010  -14.1550 C.3       1 UPG556      0.0000 
     17 O5C       -31.3850  -41.6240  -14.0730 O.3       1 UPG556      0.0000 
     18 PA        -30.5340  -41.7670  -15.4240 P.3       1 UPG556      0.0000 
     19 O1A       -30.9680  -40.7170  -16.4200 O.co2     1 UPG556      0.0000 
     20 O2A       -29.0840  -41.5900  -15.0690 O.co2     1 UPG556      0.0000 
     21 O3A       -30.7720  -43.2850  -15.9140 O.3       1 UPG556      0.0000 
     22 PB        -31.6160  -43.7850  -17.2020 P.3       1 UPG556      0.0000 
     23 O1B       -31.8110  -42.7010  -18.2360 O.co2     1 UPG556      0.0000 
     24 O2B       -30.9840  -45.0060  -17.8260 O.co2     1 UPG556      0.0000 
     25 O3B       -33.0240  -44.1900  -16.5340 O.3       1 UPG556      0.0000 
     26 C1'       -34.1180  -44.7640  -17.2460 C.3       1 UPG556      0.0000 
     27 C2'       -35.2110  -43.7160  -17.3360 C.3       1 UPG556      0.0000 
     28 C3'       -35.4490  -43.1670  -15.9330 C.3       1 UPG556      0.0000 
     29 C4'       -35.9010  -44.2980  -15.0160 C.3       1 UPG556      0.0000 
     30 C5'       -34.9220  -45.4660  -15.0980 C.3       1 UPG556      0.0000 
     31 C6'       -35.5030  -46.6480  -14.3310 C.3       1 UPG556      0.0000 
     32 O2'       -34.8200  -42.6570  -18.2120 O.3       1 UPG556      0.0000 
     33 O3'       -36.4560  -42.1690  -15.9930 O.3       1 UPG556      0.0000 
     34 O4'       -35.9990  -43.8540  -13.6590 O.3       1 UPG556      0.0000 
     35 O5'       -34.6490  -45.8350  -16.4630 O.3       1 UPG556      0.0000 
     36 O6'       -36.8400  -46.9160  -14.7750 O.3       1 UPG556      0.0000 
     37 H         -29.5571  -39.6405   -7.2534 H         1 UPG556      0.0000 
     38 H         -28.3430  -42.1248  -10.3695 H         1 UPG556      0.0000 
     39 H         -30.4807  -41.8732  -11.4527 H         1 UPG556      0.0000 
     40 H         -33.3148  -40.5331   -9.8420 H         1 UPG556      0.0000 
     41 H         -31.7334  -38.4773  -10.6856 H         1 UPG556      0.0000 
     42 H         -31.3796  -39.3251  -12.7601 H         1 UPG556      0.0000 
     43 H         -34.1902  -40.2950  -12.8307 H         1 UPG556      0.0000 
     44 H         -32.7921  -40.3290  -14.9388 H         1 UPG556      0.0000 
     45 H         -33.4412  -41.8882  -14.4026 H         1 UPG556      0.0000 
     46 H         -33.8563  -45.0708  -18.2134 H         1 UPG556      0.0000 
     47 H         -36.1150  -44.1946  -17.6633 H         1 UPG556      0.0000 
     48 H         -34.5213  -42.7771  -15.5616 H         1 UPG556      0.0000 
     49 H         -36.8645  -44.6546  -15.3740 H         1 UPG556      0.0000 
     50 H         -34.0079  -45.1655  -14.5884 H         1 UPG556      0.0000 
     51 H         -35.4754  -46.4027  -13.2617 H         1 UPG556      0.0000 
     52 H         -34.8446  -47.5111  -14.4920 H         1 UPG556      0.0000 
     53 H         -33.6716  -37.3881  -10.6530 H         1 UPG556      0.0000 
     54 H         -33.9644  -38.1428  -13.2358 H         1 UPG556      0.0000 
     55 H         -33.8205  -42.6868  -18.2239 H         1 UPG556      0.0000 
     56 H         -35.9883  -41.3154  -15.7636 H         1 UPG556      0.0000 
     57 H         -36.6072  -44.5118  -13.2149 H         1 UPG556      0.0000 
     58 H         -37.4012  -46.8694  -13.9486 H         1 UPG556      0.0000 
@<TRIPOS>BOND
     1    2    1 1    
     2    6    1 1    
     3    9    1 1    
     4    3    2 1    
     5    7    2 2    
     6    4    3 1    
     7   37    3 1    
     8    5    4 1    
     9    8    4 2    
    10    6    5 2    
    11   38    5 1    
    12   39    6 1    
    13   10    9 1    
    14   14    9 1    
    15   40    9 1    
    16   11   10 1    
    17   12   10 1    
    18   41   10 1    
    19   53   11 1    
    20   13   12 1    
    21   15   12 1    
    22   42   12 1    
    23   14   13 1    
    24   16   13 1    
    25   43   13 1    
    26   54   15 1    
    27   17   16 1    
    28   44   16 1    
    29   45   16 1    
    30   18   17 1    
    31   19   18 ar   
    32   20   18 ar   
    33   21   18 1    
    34   22   21 1    
    35   23   22 ar   
    36   24   22 ar   
    37   25   22 1    
    38   26   25 1    
    39   27   26 1    
    40   35   26 1    
    41   46   26 1    
    42   28   27 1    
    43   32   27 1    
    44   47   27 1    
    45   29   28 1    
    46   33   28 1    
    47   48   28 1    
    48   30   29 1    
    49   34   29 1    
    50   49   29 1    
    51   31   30 1    
    52   35   30 1    
    53   50   30 1    
    54   36   31 1    
    55   51   31 1    
    56   52   31 1    
    57   55   32 1    
    58   56   33 1    
    59   57   34 1    
    60   58   36 1    
@<TRIPOS>SUBSTRUCTURE
     1 UPG556      1 GROUP   
@<TRIPOS>SET

