#    Name: 3iue_FG3_3_INTS_M
#    Modification time : Tue Mar 25 17:28:31 2014

@<TRIPOS>MOLECULE
3iue_FG3_3_INTS_M
   67     0     6     0     0
SMALL
NO_CHARGES


@<TRIPOS>ATOM
      1 N          -0.2875  -14.1005   38.8435 N.am      1 SEC2        0.0000 
      2 N           0.8410  -14.2830   38.2600 N.am      5 SEL2        0.0000 
      3 N          -1.4160  -13.9180   39.4270 N.am      3 SEP2        0.0000 
      4 CA          3.0845  -11.6070   41.0630 C.3       2 GLC5        0.0000 
      5 CA          1.7530  -12.4380   39.4750 C.3       6 GLL5        0.0000 
      6 CA          4.4160  -10.7760   42.6510 C.3       4 GLP5        0.0000 
      7 CA          1.8495  -13.8815   40.7740 C.3       2 GLC5        0.0000 
      8 CA          1.9460  -15.3250   42.0730 C.3       4 GLP5        0.0000 
      9 CA         -3.6380   -8.5385   40.8745 C.3       2 GLC5        0.0000 
     10 CA         -2.9120   -6.7370   40.8970 C.3       6 GLL5        0.0000 
     11 CA         -4.3640  -10.3400   40.8520 C.3       4 GLP5        0.0000 
     12 CA         -4.9220   -6.7155   41.1485 C.3       2 GLC5        0.0000 
     13 CA         -6.9320   -6.6940   41.4000 C.3       4 GLP5        0.0000 
     14 CA         -3.2565   -6.1035   39.2100 C.3       2 GLC5        0.0000 
     15 CA         -3.6010   -5.4700   37.5230 C.3       4 GLP5        0.0000 
     16 CA         -1.3435   -5.9630   39.7200 C.3       2 GLC5        0.0000 
     17 CA          0.2250   -5.1890   38.5430 C.3       4 GLP5        0.0000 
     18 CA         -3.7370   -4.8855   40.7285 C.3       2 GLC5        0.0000 
     19 CA         -4.5620   -3.0340   40.5600 C.3       4 GLP5        0.0000 
     20 CA         -1.5950   -6.3525   42.5670 C.3       2 GLC5        0.0000 
     21 CA         -0.2780   -5.9680   44.2370 C.3       4 GLP5        0.0000 
     22 CA         -3.9695   -7.4760   42.4060 C.3       2 GLC5        0.0000 
     23 CA         -5.0270   -8.2150   43.9150 C.3       4 GLP5        0.0000 
     24 CA          2.5585  -18.1655   36.5745 C.3       2 GLC5        0.0000 
     25 CA          3.4750  -17.7990   34.7240 C.3       6 GLL5        0.0000 
     26 CA          1.6420  -18.5320   38.4250 C.3       4 GLP5        0.0000 
     27 N          -0.4370  -13.1980   31.8515 N.am      1 SEC2        0.0000 
     28 N           0.1240  -12.5230   32.9110 N.am      5 SEL2        0.0000 
     29 N          -0.9980  -13.8730   30.7920 N.am      3 SEP2        0.0000 
     30 N          -1.0215  -12.6825   34.2205 N.am      1 SEC2        0.0000 
     31 N          -2.1670  -12.8420   35.5300 N.am      3 SEP2        0.0000 
     32 CA          1.6185  -17.4165   36.6235 C.3       2 GLC5        0.0000 
     33 CA          1.5950  -16.3010   34.8220 C.3       6 GLL5        0.0000 
     34 CA          0.3220   -8.7430   43.1735 C.3       2 GLC5        0.0000 
     35 CA         -0.7160   -9.6370   41.6520 C.3       6 GLL5        0.0000 
     36 CA          1.3600   -7.8490   44.6950 C.3       4 GLP5        0.0000 
     37 CA         -2.3500   -9.3915   43.1260 C.3       2 GLC5        0.0000 
     38 CA         -3.9840   -9.1460   44.6000 C.3       4 GLP5        0.0000 
     39 CA          1.8710   -9.4740   41.3265 C.3       2 GLC5        0.0000 
     40 CA          0.0900  -10.5690   41.0100 C.3       6 GLL5        0.0000 
     41 CA          3.6520   -8.3790   41.6430 C.3       4 GLP5        0.0000 
     42 CA          3.5970  -15.1260   32.1590 C.3       2 GLC5        0.0000 
     43 CA          3.7390  -15.4720   34.1010 C.3       6 GLL5        0.0000 
     44 CA          3.4550  -14.7800   30.2170 C.3       4 GLP5        0.0000 
     45 CA         -0.5325   -6.9980   39.0115 C.3       2 GLC5        0.0000 
     46 CA         -1.2900   -8.8070   39.4800 C.3       6 GLL5        0.0000 
     47 N          -2.1680   -7.6755   43.1010 N.am      1 SEC2        0.0000 
     48 N          -2.2240   -7.8110   41.5540 N.am      5 SEL2        0.0000 
     49 N          -2.1120   -7.5400   44.6480 N.am      3 SEP2        0.0000 
     50 CA         -0.8520   -7.3415   42.5585 C.3       2 GLC5        0.0000 
     51 CA         -1.4260   -8.7150   40.8800 C.3       6 GLL5        0.0000 
     52 N           3.6175  -15.1770   40.2370 N.am      1 SEC2        0.0000 
     53 N           2.9890  -14.3470   38.8450 N.am      5 SEL2        0.0000 
     54 N           4.2460  -16.0070   41.6290 N.am      3 SEP2        0.0000 
     55 N           2.3205  -15.7145   39.6360 N.am      1 SEC2        0.0000 
     56 N           1.6520  -17.0820   40.4270 N.am      3 SEP2        0.0000 
     57 CA         -2.3385  -10.2215   41.0915 C.3       2 GLC5        0.0000 
     58 CA         -0.8160  -11.4790   42.7910 C.3       2 GLC5        0.0000 
     59 CA         -1.3190  -12.8550   44.2510 C.3       4 GLP5        0.0000 
     60 CA         -1.4808  -11.2212   36.4738 C.3       2 GLC5        0.0000 
     61 CA         -0.2080   -9.9960   37.5940 C.3       6 GLL5        0.0000 
     62 CA         -3.1760  -11.9220   35.3650 C.3       4 GLP5        0.0000 
     63 CA          1.2184  -15.1199   32.5154 C.3       2 GLC5        0.0000 
     64 CA          1.8510  -13.9920   34.2140 C.3       6 GLL5        0.0000 
     65 CA          0.8510  -15.4100   30.5530 C.3       4 GLP5        0.0000 
     66 CA         -2.6480   -9.7930   40.1937 C.3       2 GLC5        0.0000 
     67 CA         -0.5060   -9.7310   38.8910 C.3       6 GLL5        0.0000 
@<TRIPOS>BOND
@<TRIPOS>SUBSTRUCTURE
     1 SEC2        1 GROUP        1 X    SEC  0     ROOT SEC X 2
     2 GLC5        4 GROUP        1 X    GLC  0     **** GLC X 6
     3 SEP2        3 GROUP        1 Y    SEP  0     ROOT SEP Y 9
     4 GLP5        6 GROUP        1 Y    GLP  0     **** GLP Y 13
     5 SEL2        2 GROUP        1 Z    SEL  0     ROOT SEL Z 16
     6 GLL5        5 GROUP        1 Z    GLL  0     **** GLL Z 20
@<TRIPOS>SET

