#    Name: 3iue_FG3_3_ligand
#    Modification time : Tue Mar 25 17:28:31 2014

@<TRIPOS>MOLECULE
3iue_FG3_3_ligand
   44    46     1     0     0
SMALL
NO_CHARGES


@<TRIPOS>ATOM
      1 C           1.8640  -13.7970   38.7860 C.2       1 FG3302      0.0000 
      2 N           0.8820  -11.4070   38.8480 N.pl3     1 FG3302      0.0000 
      3 O           0.8410  -14.2830   38.2600 O.co2     1 FG3302      0.0000 
      4 CA          1.7530  -12.4380   39.4750 C.3       1 FG3302      0.0000 
      5 CAA        -2.9120   -6.7370   40.8970 C.3       1 FG3302      0.0000 
      6 CAB         3.4750  -17.7990   34.7240 C.3       1 FG3302      0.0000 
      7 OAD         2.4250  -11.8560   36.4600 O.2       1 FG3302      0.0000 
      8 OAE         2.3030  -11.4990   33.5370 O.2       1 FG3302      0.0000 
      9 OAF         0.1240  -12.5230   32.9110 O.2       1 FG3302      0.0000 
     10 CAH         1.5950  -16.3010   34.8220 C.ar      1 FG3302      0.0000 
     11 CAI         1.0460  -15.0340   34.6610 C.ar      1 FG3302      0.0000 
     12 CAJ        -0.7160   -9.6370   41.6520 C.ar      1 FG3302      0.0000 
     13 CAK         0.0900  -10.5690   41.0100 C.ar      1 FG3302      0.0000 
     14 CAL         3.7390  -15.4720   34.1010 C.ar      1 FG3302      0.0000 
     15 CAM        -1.2900   -8.8070   39.4800 C.ar      1 FG3302      0.0000 
     16 CAN        -0.2080   -9.9960   37.5940 C.2       1 FG3302      0.0000 
     17 NAP         3.1550  -14.1950   33.9340 N.ar      1 FG3302      0.0000 
     18 NAQ         0.4570  -11.7980   35.3790 N.pl3     1 FG3302      0.0000 
     19 OAR        -2.2240   -7.8110   41.5540 O.3       1 FG3302      0.0000 
     20 CAT         1.2180  -11.5980   36.4670 C.2       1 FG3302      0.0000 
     21 CAU         2.9430  -16.5220   34.5510 C.ar      1 FG3302      0.0000 
     22 CAV        -1.4260   -8.7150   40.8800 C.ar      1 FG3302      0.0000 
     23 CAW         1.8510  -13.9920   34.2140 C.ar      1 FG3302      0.0000 
     24 CAX         0.6370  -11.0450   37.5710 C.2       1 FG3302      0.0000 
     25 CAY        -0.5060   -9.7310   38.8910 C.ar      1 FG3302      0.0000 
     26 CAZ         0.1870  -10.6020   39.6590 C.ar      1 FG3302      0.0000 
     27 SBB         1.1740  -12.4320   33.9970 S.o2      1 FG3302      0.0000 
     28 OXT         2.9890  -14.3470   38.8450 O.co2     1 FG3302      0.0000 
     29 H           2.7932  -12.0256   39.5893 H         1 FG3302      0.0000 
     30 H           1.4146  -12.6165   40.5328 H         1 FG3302      0.0000 
     31 H           1.0031  -17.0804   35.1431 H         1 FG3302      0.0000 
     32 H           0.0567  -14.8692   34.8699 H         1 FG3302      0.0000 
     33 H          -0.7900   -9.6238   42.6686 H         1 FG3302      0.0000 
     34 H           0.6245  -11.2497   41.5924 H         1 FG3302      0.0000 
     35 H           4.7241  -15.6109   33.8934 H         1 FG3302      0.0000 
     36 H          -1.8291   -8.1197   38.8990 H         1 FG3302      0.0000 
     37 H          -0.5432   -9.5171   36.8314 H         1 FG3302      0.0000 
     38 H          -0.5079  -11.6273   35.2414 H         1 FG3302      0.0000 
     39 H          -2.2779   -6.1187   40.4327 H         1 FG3302      0.0000 
     40 H          -3.5520   -7.0734   40.2062 H         1 FG3302      0.0000 
     41 H          -3.4404   -6.1848   41.5419 H         1 FG3302      0.0000 
     42 H           4.4481  -17.8300   34.4957 H         1 FG3302      0.0000 
     43 H           3.3855  -18.1137   35.6689 H         1 FG3302      0.0000 
     44 H           3.0166  -18.4738   34.1456 H         1 FG3302      0.0000 
@<TRIPOS>BOND
     1    3    1 ar   
     2    4    1 1    
     3   28    1 ar   
     4    4    2 1    
     5   24    2 1    
     6   26    2 1    
     7   29    4 1    
     8   30    4 1    
     9   19    5 1    
    10   39    5 1    
    11   40    5 1    
    12   41    5 1    
    13   21    6 1    
    14   42    6 1    
    15   43    6 1    
    16   44    6 1    
    17   20    7 2    
    18   27    8 2    
    19   27    9 2    
    20   11   10 ar   
    21   21   10 ar   
    22   31   10 1    
    23   23   11 ar   
    24   32   11 1    
    25   13   12 ar   
    26   22   12 ar   
    27   33   12 1    
    28   26   13 ar   
    29   34   13 1    
    30   17   14 ar   
    31   21   14 ar   
    32   35   14 1    
    33   22   15 ar   
    34   25   15 ar   
    35   36   15 1    
    36   24   16 2    
    37   25   16 1    
    38   37   16 1    
    39   23   17 ar   
    40   20   18 1    
    41   27   18 1    
    42   38   18 1    
    43   22   19 1    
    44   24   20 1    
    45   27   23 1    
    46   26   25 ar   
@<TRIPOS>SUBSTRUCTURE
     1 FG3302      1 GROUP   
@<TRIPOS>SET

