#    Name: 2p2h_994_1_INTS_M
#    Modification time : Mon Mar 24 18:12:40 2014

@<TRIPOS>MOLECULE
2p2h_994_1_INTS_M
   77     0     9     0     0
SMALL
NO_CHARGES


@<TRIPOS>ATOM
      1 CA          8.0325   20.5405   41.8015 C.3       3 GLC5        0.0000 
      2 CA          9.2250   18.7980   42.4990 C.3       9 GLL5        0.0000 
      3 CA          6.8400   22.2830   41.1040 C.3       6 GLP5        0.0000 
      4 CA          8.8290   16.4905   43.8625 C.3       3 GLC5        0.0000 
      5 CA          8.5120   17.6090   42.1120 C.3       9 GLL5        0.0000 
      6 CA          9.1460   15.3720   45.6130 C.3       6 GLP5        0.0000 
      7 O           6.7645   16.7955   41.2090 O.2       1 ALC1        0.0000 
      8 O           7.2000   17.2980   42.4690 O.2       7 ALL1        0.0000 
      9 O           6.3290   16.2930   39.9490 O.2       4 ALP1        0.0000 
     10 CA          7.8000   16.5535   44.5770 C.3       3 GLC5        0.0000 
     11 CA          6.4540   17.7350   43.5410 C.3       9 GLL5        0.0000 
     12 CA          5.2070   17.7865   41.9345 C.3       3 GLC5        0.0000 
     13 CA          3.9600   17.8380   40.3280 C.3       6 GLP5        0.0000 
     14 CA          5.8815   19.3915   43.0955 C.3       3 GLC5        0.0000 
     15 CA          5.3090   21.0480   42.6500 C.3       6 GLP5        0.0000 
     16 CA          5.6190   17.3570   46.5750 C.3       3 GLC5        0.0000 
     17 CA          6.2110   19.0520   45.5060 C.3       9 GLL5        0.0000 
     18 CA          5.0270   15.6620   47.6440 C.3       6 GLP5        0.0000 
     19 CA          4.7760   16.6535   46.1540 C.3       3 GLC5        0.0000 
     20 CA          4.5250   17.6450   44.6640 C.3       9 GLL5        0.0000 
     21 CA          2.8555   18.7825   45.3065 C.3       3 GLC5        0.0000 
     22 CA          1.1860   19.9200   45.9490 C.3       6 GLP5        0.0000 
     23 CA          3.7720   16.0960   44.1395 C.3       3 GLC5        0.0000 
     24 CA          3.0190   14.5470   43.6150 C.3       6 GLP5        0.0000 
     25 CA          3.4965   18.0925   42.8665 C.3       3 GLC5        0.0000 
     26 CA          2.4680   18.5400   41.0690 C.3       6 GLP5        0.0000 
     27 CA          4.9170   19.3465   43.6570 C.3       3 GLC5        0.0000 
     28 N           4.5565   16.5330   42.6870 N.am      2 SEC2        0.0000 
     29 N           5.2350   17.2120   43.6150 N.am      8 SEL2        0.0000 
     30 N           3.8780   15.8540   41.7590 N.am      5 SEP2        0.0000 
     31 CA          9.3875   16.2965   37.3225 C.3       3 GLC5        0.0000 
     32 CA         11.0390   16.1480   38.6610 C.3       9 GLL5        0.0000 
     33 CA          7.7360   16.4450   35.9840 C.3       6 GLP5        0.0000 
     34 CA         10.0365   17.6330   38.5055 C.3       3 GLC5        0.0000 
     35 CA          9.0340   19.1180   38.3500 C.3       6 GLP5        0.0000 
     36 CA          8.6630   21.8375   41.8630 C.3       3 GLC5        0.0000 
     37 CA         10.4860   21.3920   42.6220 C.3       9 GLL5        0.0000 
     38 CA          6.3030   22.5125   47.0645 C.3       3 GLC5        0.0000 
     39 CA          8.0410   21.9060   48.2370 C.3       9 GLL5        0.0000 
     40 CA          4.5650   23.1190   45.8920 C.3       6 GLP5        0.0000 
     41 CA          5.1710   18.9600   52.7585 C.3       3 GLC5        0.0000 
     42 CA          4.0070   19.3050   51.4560 C.3       9 GLL5        0.0000 
     43 CA          6.3350   18.6150   54.0610 C.3       6 GLP5        0.0000 
     44 CA          6.5665   18.3935   49.6695 C.3       3 GLC5        0.0000 
     45 CA          4.5590   19.2430   50.1570 C.3       9 GLL5        0.0000 
     46 CA          8.5740   17.5440   49.1820 C.3       6 GLP5        0.0000 
     47 CA          4.7930   17.4525   48.9005 C.3       3 GLC5        0.0000 
     48 CA          9.9600   18.8305   40.0072 C.3       3 GLC5        0.0000 
     49 CA         10.5650   19.0310   42.0780 C.3       9 GLL5        0.0000 
     50 CA          8.9512   18.6608   40.3278 C.3       3 GLC5        0.0000 
     51 CA         10.5010   15.6305   42.7385 C.3       3 GLC5        0.0000 
     52 CA          9.1750   16.6600   41.2920 C.3       9 GLL5        0.0000 
     53 CA         11.1610   14.5020   44.4040 C.3       6 GLP5        0.0000 
     54 CA          9.4375   17.9385   39.7115 C.3       3 GLC5        0.0000 
     55 CA          5.9082   20.2992   44.3252 C.3       3 GLC5        0.0000 
     56 CA          8.9367   20.6115   49.0323 C.3       3 GLC5        0.0000 
     57 CA          8.7540   21.4340   47.1260 C.3       9 GLL5        0.0000 
     58 CA          9.4760   19.5530   50.3830 C.3       6 GLP5        0.0000 
     59 CA          7.6899   18.9859   48.1009 C.3       3 GLC5        0.0000 
     60 CA          6.1490   20.5770   47.6580 C.3       9 GLL5        0.0000 
     61 CA          5.6483   21.7111   46.3941 C.3       3 GLC5        0.0000 
     62 CA          2.4158   19.6340   49.8113 C.3       3 GLC5        0.0000 
     63 CA          4.3180   20.2880   49.2270 C.3       9 GLL5        0.0000 
     64 CA          0.9130   18.4240   50.2030 C.3       6 GLP5        0.0000 
     65 CA          4.2417   21.9815   47.6557 C.3       3 GLC5        0.0000 
     66 CA          3.5190   21.4000   49.6120 C.3       9 GLL5        0.0000 
     67 CA          4.8675   21.1858   52.0815 C.3       3 GLC5        0.0000 
     68 CA          2.9630   21.4660   50.9160 C.3       9 GLL5        0.0000 
     69 CA          6.6490   21.4310   52.7860 C.3       6 GLP5        0.0000 
     70 CA          1.2715   21.3502   52.0910 C.3       3 GLC5        0.0000 
     71 CA          3.2090   20.4150   51.8380 C.3       9 GLL5        0.0000 
     72 CA         -0.5430   21.7600   52.8050 C.3       6 GLP5        0.0000 
     73 CA          1.9995   19.6822   50.7900 C.3       3 GLC5        0.0000 
     74 CA          2.3620   19.2165   53.2060 C.3       3 GLC5        0.0000 
     75 CA          1.1160   18.5730   54.7650 C.3       6 GLP5        0.0000 
     76 CA          2.5980   18.8490   50.5048 C.3       3 GLC5        0.0000 
     77 CA          5.4439   20.7373   51.2871 C.3       3 GLC5        0.0000 
@<TRIPOS>BOND
@<TRIPOS>SUBSTRUCTURE
     1 ALC1        7 GROUP        1 X    ALC  0     ROOT ALC X 1
     2 SEC2       28 GROUP        1 X    SEC  0     **** SEC X 2
     3 GLC5        1 GROUP        1 X    GLC  0     **** GLC X 6
     4 ALP1        9 GROUP        1 Y    ALP  0     ROOT ALP Y 8
     5 SEP2       30 GROUP        1 Y    SEP  0     **** SEP Y 9
     6 GLP5        3 GROUP        1 Y    GLP  0     **** GLP Y 13
     7 ALL1        8 GROUP        1 Z    ALL  0     ROOT ALL Z 15
     8 SEL2       29 GROUP        1 Z    SEL  0     **** SEL Z 16
     9 GLL5        2 GROUP        1 Z    GLL  0     **** GLL Z 20
@<TRIPOS>SET

