#    Name: 2p2h_994_1_ligand
#    Modification time : Mon Mar 24 18:12:40 2014

@<TRIPOS>MOLECULE
2p2h_994_1_ligand
   54    57     1     0     0
SMALL
NO_CHARGES


@<TRIPOS>ATOM
      1 C1         11.2070   18.0550   41.2510 C.ar      1 994501      0.0000 
      2 C2         10.5650   19.0310   42.0780 C.ar      1 994501      0.0000 
      3 C3          9.2250   18.7980   42.4990 C.ar      1 994501      0.0000 
      4 C4          8.5120   17.6090   42.1120 C.ar      1 994501      0.0000 
      5 C5          9.1750   16.6600   41.2920 C.ar      1 994501      0.0000 
      6 C6         10.5070   16.8580   40.8540 C.ar      1 994501      0.0000 
      7 N9          7.2000   17.2980   42.4690 N.pl3     1 994501      0.0000 
      8 C10         6.4540   17.7350   43.5410 C.ar      1 994501      0.0000 
      9 N11         6.9550   18.6170   44.4240 N.ar      1 994501      0.0000 
     10 C12         6.2110   19.0520   45.5060 C.ar      1 994501      0.0000 
     11 N13         4.9450   18.5160   45.5900 N.ar      1 994501      0.0000 
     12 C14         4.5250   17.6450   44.6640 C.ar      1 994501      0.0000 
     13 N15         5.2350   17.2120   43.6150 N.ar      1 994501      0.0000 
     14 O17        11.0760   15.8530   40.0470 O.3       1 994501      0.0000 
     15 C18        11.0390   16.1480   38.6610 C.3       1 994501      0.0000 
     16 O22        12.5140   18.2690   40.8410 O.3       1 994501      0.0000 
     17 C23        13.4330   17.7260   41.7940 C.3       1 994501      0.0000 
     18 O27        11.2800   20.2040   42.4630 O.3       1 994501      0.0000 
     19 C28        10.4860   21.3920   42.6220 C.3       1 994501      0.0000 
     20 C32         6.8040   20.0490   46.4950 C.ar      1 994501      0.0000 
     21 C33         8.1210   20.5080   46.2680 C.ar      1 994501      0.0000 
     22 C34         8.7540   21.4340   47.1260 C.ar      1 994501      0.0000 
     23 C35         8.0410   21.9060   48.2370 C.ar      1 994501      0.0000 
     24 N36         6.7810   21.4880   48.4910 N.ar      1 994501      0.0000 
     25 C37         6.1490   20.5770   47.6580 C.ar      1 994501      0.0000 
     26 N41         4.8730   20.1930   47.9810 N.pl3     1 994501      0.0000 
     27 C42         4.3180   20.2880   49.2270 C.ar      1 994501      0.0000 
     28 C43         3.5190   21.4000   49.6120 C.ar      1 994501      0.0000 
     29 C44         2.9630   21.4660   50.9160 C.ar      1 994501      0.0000 
     30 C45         3.2090   20.4150   51.8380 C.ar      1 994501      0.0000 
     31 C46         4.0070   19.3050   51.4560 C.ar      1 994501      0.0000 
     32 C47         4.5590   19.2430   50.1570 C.ar      1 994501      0.0000 
     33 H           8.7516   19.4883   43.0910 H         1 994501      0.0000 
     34 H           8.6734   15.8048   41.0083 H         1 994501      0.0000 
     35 H           6.6912   16.6000   41.7900 H         1 994501      0.0000 
     36 H           3.5178   17.2547   44.7738 H         1 994501      0.0000 
     37 H           8.6398   20.1528   45.4436 H         1 994501      0.0000 
     38 H           9.6974   21.7457   46.9397 H         1 994501      0.0000 
     39 H           8.5105   22.5915   48.8656 H         1 994501      0.0000 
     40 H           4.2668   19.7885   47.1976 H         1 994501      0.0000 
     41 H           3.3455   22.1537   48.9459 H         1 994501      0.0000 
     42 H           2.3919   22.2610   51.1884 H         1 994501      0.0000 
     43 H           2.8119   20.4575   52.7759 H         1 994501      0.0000 
     44 H           4.1805   18.5522   52.1227 H         1 994501      0.0000 
     45 H           5.1341   18.4444   49.8831 H         1 994501      0.0000 
     46 H          11.5380   16.9877   38.4466 H         1 994501      0.0000 
     47 H          11.4473   15.4167   38.1146 H         1 994501      0.0000 
     48 H          10.1026   16.2714   38.3324 H         1 994501      0.0000 
     49 H          14.3832   17.8715   41.5183 H         1 994501      0.0000 
     50 H          13.3223   18.1432   42.6961 H         1 994501      0.0000 
     51 H          13.3090   16.7405   41.9097 H         1 994501      0.0000 
     52 H          11.0423   22.1767   42.8955 H         1 994501      0.0000 
     53 H          10.0207   21.6441   41.7735 H         1 994501      0.0000 
     54 H           9.7796   21.2759   43.3203 H         1 994501      0.0000 
@<TRIPOS>BOND
     1    2    1 ar   
     2    6    1 ar   
     3   16    1 1    
     4    3    2 ar   
     5   18    2 1    
     6    4    3 ar   
     7   33    3 1    
     8    5    4 ar   
     9    7    4 1    
    10    6    5 ar   
    11   34    5 1    
    12   14    6 1    
    13    8    7 1    
    14   35    7 1    
    15    9    8 ar   
    16   13    8 ar   
    17   10    9 ar   
    18   11   10 ar   
    19   20   10 1    
    20   12   11 ar   
    21   13   12 ar   
    22   36   12 1    
    23   15   14 1    
    24   46   15 1    
    25   47   15 1    
    26   48   15 1    
    27   17   16 1    
    28   49   17 1    
    29   50   17 1    
    30   51   17 1    
    31   19   18 1    
    32   52   19 1    
    33   53   19 1    
    34   54   19 1    
    35   21   20 ar   
    36   25   20 ar   
    37   22   21 ar   
    38   37   21 1    
    39   23   22 ar   
    40   38   22 1    
    41   24   23 ar   
    42   39   23 1    
    43   25   24 ar   
    44   26   25 1    
    45   27   26 1    
    46   40   26 1    
    47   28   27 ar   
    48   32   27 ar   
    49   29   28 ar   
    50   41   28 1    
    51   30   29 ar   
    52   42   29 1    
    53   31   30 ar   
    54   43   30 1    
    55   32   31 ar   
    56   44   31 1    
    57   45   32 1    
@<TRIPOS>SUBSTRUCTURE
     1 994501      1 GROUP   
@<TRIPOS>SET

