#    Name: 3kmz_EQO_1_INTS_M
#    Modification time : Mon Mar 24 19:50:24 2014

@<TRIPOS>MOLECULE
3kmz_EQO_1_INTS_M
   95     0     6     0     0
SMALL
NO_CHARGES


@<TRIPOS>ATOM
      1 CA        -42.9110   40.3280   -5.9515 C.3       2 GLC5        0.0000 
      2 CA        -44.3140   39.5170   -7.1260 C.3       6 GLL5        0.0000 
      3 CA        -41.5080   41.1390   -4.7770 C.3       4 GLP5        0.0000 
      4 CA        -44.5720   41.6570   -6.5850 C.3       2 GLC5        0.0000 
      5 CA        -44.8300   43.7970   -6.0440 C.3       4 GLP5        0.0000 
      6 CA        -46.1415   38.5815   -7.4895 C.3       2 GLC5        0.0000 
      7 CA        -47.9690   37.6460   -7.8530 C.3       4 GLP5        0.0000 
      8 CA        -46.0130   40.8935   -7.3890 C.3       2 GLC5        0.0000 
      9 CA        -47.7120   42.2700   -7.6520 C.3       4 GLP5        0.0000 
     10 CA        -45.2685   38.4540   -5.7795 C.3       2 GLC5        0.0000 
     11 CA        -46.2230   37.3910   -4.4330 C.3       4 GLP5        0.0000 
     12 CA        -46.2610   38.3135   -8.6935 C.3       2 GLC5        0.0000 
     13 CA        -44.5530   38.9810   -9.5340 C.3       6 GLL5        0.0000 
     14 CA        -45.5495   40.5170  -10.4645 C.3       2 GLC5        0.0000 
     15 CA        -46.5460   42.0530  -11.3950 C.3       4 GLP5        0.0000 
     16 N         -33.7165   47.4020  -13.1690 N.am      1 SEC2        0.0000 
     17 N         -33.5170   46.4400  -11.8930 N.am      5 SEL2        0.0000 
     18 N         -33.9160   48.3640  -14.4450 N.am      3 SEP2        0.0000 
     19 N         -32.4430   47.0540  -12.0805 N.am      1 SEC2        0.0000 
     20 N         -31.3690   47.6680  -12.2680 N.am      3 SEP2        0.0000 
     21 N         -32.0960   45.2520  -13.4325 N.am      1 SEC2        0.0000 
     22 N         -32.5380   44.5530  -12.2330 N.am      5 SEL2        0.0000 
     23 N         -31.6540   45.9510  -14.6320 N.am      3 SEP2        0.0000 
     24 CA        -38.4770   40.2610  -10.4490 C.3       2 GLC5        0.0000 
     25 CA        -37.9040   42.1510   -9.5660 C.3       6 GLL5        0.0000 
     26 CA        -39.0500   38.3710  -11.3320 C.3       4 GLP5        0.0000 
     27 CA        -36.4635   40.7270   -8.8425 C.3       2 GLC5        0.0000 
     28 CA        -35.0230   39.3030   -8.1190 C.3       4 GLP5        0.0000 
     29 CA        -40.0025   43.8685  -10.6820 C.3       2 GLC5        0.0000 
     30 CA        -39.1570   42.5690   -9.3610 C.3       6 GLL5        0.0000 
     31 CA        -40.8480   45.1680  -12.0030 C.3       4 GLP5        0.0000 
     32 CA        -41.1890   43.5845  -10.6555 C.3       2 GLC5        0.0000 
     33 CA        -41.5300   42.0010   -9.3080 C.3       6 GLL5        0.0000 
     34 CA        -33.1990   41.7930  -11.7510 C.3       2 GLC5        0.0000 
     35 CA        -34.6360   43.1110  -11.1070 C.3       6 GLL5        0.0000 
     36 CA        -31.7620   40.4750  -12.3950 C.3       4 GLP5        0.0000 
     37 CA        -38.7095   41.2705   -7.0395 C.3       2 GLC5        0.0000 
     38 CA        -40.0000   40.3000   -8.5590 C.3       6 GLL5        0.0000 
     39 CA        -37.4190   42.2410   -5.5200 C.3       4 GLP5        0.0000 
     40 CA        -43.3358   39.1647  -10.8295 C.3       2 GLC5        0.0000 
     41 CA        -42.6040   39.3420  -12.7130 C.3       4 GLP5        0.0000 
     42 CA        -40.9282   37.3240   -5.9627 C.3       2 GLC5        0.0000 
     43 CA        -39.6960   37.5890   -7.5150 C.3       6 GLL5        0.0000 
     44 CA        -41.5780   36.8280   -4.2580 C.3       4 GLP5        0.0000 
     45 CA        -39.2428   43.1680   -7.7058 C.3       2 GLC5        0.0000 
     46 CA        -38.7910   44.2520   -6.2190 C.3       4 GLP5        0.0000 
     47 CA        -42.0905   37.1313   -6.0125 C.3       2 GLC5        0.0000 
     48 CA        -41.9530   37.2210   -7.6290 C.3       6 GLL5        0.0000 
     49 CA        -35.1453   37.5600   -7.1007 C.3       2 GLC5        0.0000 
     50 CA        -35.5970   35.4180   -6.5530 C.3       6 GLL5        0.0000 
     51 CA        -33.9108   37.0090   -3.6550 C.3       2 GLC5        0.0000 
     52 CA        -34.9380   36.2160   -5.6120 C.3       6 GLL5        0.0000 
     53 CA        -32.5750   37.2200   -1.9290 C.3       4 GLP5        0.0000 
     54 CA        -35.6043   38.4345   -6.7562 C.3       2 GLC5        0.0000 
     55 CA        -35.5550   37.3800   -5.1500 C.3       6 GLL5        0.0000 
     56 CA        -35.3668   38.8375   -4.1967 C.3       2 GLC5        0.0000 
     57 CA        -36.8160   37.7520   -5.6370 C.3       6 GLL5        0.0000 
     58 CA        -34.5480   40.1090   -3.0000 C.3       4 GLP5        0.0000 
     59 CA        -37.7388   36.7705   -4.4878 C.3       2 GLC5        0.0000 
     60 CA        -39.2920   35.9750   -3.5820 C.3       4 GLP5        0.0000 
     61 CA        -35.0656   35.4438   -4.0911 C.3       2 GLC5        0.0000 
     62 CA        -34.7200   34.2890   -2.5660 C.3       4 GLP5        0.0000 
     63 CA        -36.7077   38.0885   -3.6493 C.3       2 GLC5        0.0000 
     64 CA        -37.2300   38.6110   -1.9050 C.3       4 GLP5        0.0000 
     65 CA        -34.7431   35.5430   -8.0874 C.3       2 GLC5        0.0000 
     66 CA        -33.4260   35.2830   -9.6110 C.3       4 GLP5        0.0000 
     67 CA        -36.2356   37.8835   -7.5256 C.3       2 GLC5        0.0000 
     68 CA        -36.8530   35.7890   -7.0450 C.3       6 GLL5        0.0000 
     69 CA        -38.3701   36.2195   -5.2571 C.3       2 GLC5        0.0000 
     70 CA        -37.4630   36.9640   -6.5910 C.3       6 GLL5        0.0000 
     71 CA        -35.1610   45.5415   -9.0398 C.3       2 GLC5        0.0000 
     72 CA        -36.8780   44.4480  -10.0830 C.3       6 GLL5        0.0000 
     73 CA        -33.9860   46.2730   -7.7230 C.3       4 GLP5        0.0000 
     74 CA        -37.2491   43.5863   -8.0426 C.3       2 GLC5        0.0000 
     75 CA        -37.3800   43.6480   -6.1430 C.3       4 GLP5        0.0000 
     76 CA        -38.1418   44.6502  -11.2825 C.3       2 GLC5        0.0000 
     77 CA        -36.8130   43.0510  -10.0370 C.3       6 GLL5        0.0000 
     78 CA        -39.4380   45.5510  -12.5050 C.3       4 GLP5        0.0000 
     79 CA        -42.9215   42.8402   -8.1595 C.3       2 GLC5        0.0000 
     80 CA        -43.7760   44.1060   -7.1200 C.3       4 GLP5        0.0000 
     81 CA        -36.4245   44.9402  -12.5935 C.3       2 GLC5        0.0000 
     82 CA        -35.7940   45.1720  -10.6300 C.3       6 GLL5        0.0000 
     83 CA        -37.6180   45.0440  -14.3020 C.3       4 GLP5        0.0000 
     84 CA        -42.0060   40.8195   -6.8133 C.3       2 GLC5        0.0000 
     85 CA        -42.6040   41.1480   -9.0900 C.3       6 GLL5        0.0000 
     86 CA        -40.8120   41.0442   -6.7842 C.3       2 GLC5        0.0000 
     87 CA        -39.2452   37.5106   -9.1349 C.3       2 GLC5        0.0000 
     88 CA        -40.8610   38.0510   -7.8200 C.3       6 GLL5        0.0000 
     89 CA        -38.4800   37.2700  -10.7190 C.3       4 GLP5        0.0000 
     90 CA        -41.2410   39.9408   -6.4280 C.3       2 GLC5        0.0000 
     91 CA        -34.9154   41.5955   -9.3662 C.3       2 GLC5        0.0000 
     92 CA        -33.8390   40.2870   -8.2930 C.3       4 GLP5        0.0000 
     93 CA        -34.0511   44.1305   -9.3330 C.3       2 GLC5        0.0000 
     94 CA        -35.7050   42.4030  -10.5770 C.3       6 GLL5        0.0000 
     95 CA        -33.1830   44.6320   -7.6750 C.3       4 GLP5        0.0000 
@<TRIPOS>BOND
@<TRIPOS>SUBSTRUCTURE
     1 SEC2       16 GROUP        1 X    SEC  0     ROOT SEC X 2
     2 GLC5        1 GROUP        1 X    GLC  0     **** GLC X 6
     3 SEP2       18 GROUP        1 Y    SEP  0     ROOT SEP Y 9
     4 GLP5        3 GROUP        1 Y    GLP  0     **** GLP Y 13
     5 SEL2       17 GROUP        1 Z    SEL  0     ROOT SEL Z 16
     6 GLL5        2 GROUP        1 Z    GLL  0     **** GLL Z 20
@<TRIPOS>SET

