#    Name: 3kmz_EQO_1_ligand
#    Modification time : Mon Mar 24 19:50:24 2014

@<TRIPOS>MOLECULE
3kmz_EQO_1_ligand
   54    57     1     0     0
SMALL
NO_CHARGES


@<TRIPOS>ATOM
      1 CAA       -44.3140   39.5170   -7.1260 C.3       1 EQO2        0.0000 
      2 CAB       -44.5530   38.9810   -9.5340 C.3       1 EQO2        0.0000 
      3 OAC       -33.5170   46.4400  -11.8930 O.co2     1 EQO2        0.0000 
      4 OAD       -32.5380   44.5530  -12.2330 O.co2     1 EQO2        0.0000 
      5 CAE       -39.6960   37.5890   -7.5150 C.1       1 EQO2        0.0000 
      6 CAF       -38.6240   37.3140   -7.0480 C.1       1 EQO2        0.0000 
      7 CAG       -37.9040   42.1510   -9.5660 C.2       1 EQO2        0.0000 
      8 CAH       -39.1570   42.5690   -9.3610 C.2       1 EQO2        0.0000 
      9 CAI       -41.9530   37.2210   -7.6290 C.2       1 EQO2        0.0000 
     10 CAJ       -34.9380   36.2160   -5.6120 C.ar      1 EQO2        0.0000 
     11 CAK       -35.5970   35.4180   -6.5530 C.ar      1 EQO2        0.0000 
     12 CAL       -35.5550   37.3800   -5.1500 C.ar      1 EQO2        0.0000 
     13 CAM       -36.8530   35.7890   -7.0450 C.ar      1 EQO2        0.0000 
     14 CAN       -36.8160   37.7520   -5.6370 C.ar      1 EQO2        0.0000 
     15 CAO       -36.8780   44.4480  -10.0830 C.ar      1 EQO2        0.0000 
     16 CAP       -35.7050   42.4030  -10.5770 C.ar      1 EQO2        0.0000 
     17 CAQ       -41.5300   42.0010   -9.3080 C.ar      1 EQO2        0.0000 
     18 CAR       -35.7940   45.1720  -10.6300 C.ar      1 EQO2        0.0000 
     19 CAS       -34.6360   43.1110  -11.1070 C.ar      1 EQO2        0.0000 
     20 CAT       -42.6040   41.1480   -9.0900 C.ar      1 EQO2        0.0000 
     21 CAU       -40.0000   40.3000   -8.5590 C.ar      1 EQO2        0.0000 
     22 CAV       -43.2530   37.6480   -7.9050 C.3       1 EQO2        0.0000 
     23 CAW       -33.4930   45.2080  -11.7640 C.2       1 EQO2        0.0000 
     24 CAX       -40.8610   38.0510   -7.8200 C.2       1 EQO2        0.0000 
     25 CAY       -37.4630   36.9640   -6.5910 C.ar      1 EQO2        0.0000 
     26 CAZ       -36.8130   43.0510  -10.0370 C.ar      1 EQO2        0.0000 
     27 CBA       -40.2320   41.5990   -9.0240 C.ar      1 EQO2        0.0000 
     28 CBB       -34.6680   44.5010  -11.1400 C.ar      1 EQO2        0.0000 
     29 CBC       -41.0870   39.4340   -8.3380 C.ar      1 EQO2        0.0000 
     30 CBD       -42.4040   39.8520   -8.6090 C.ar      1 EQO2        0.0000 
     31 CBE       -43.5820   38.9940   -8.3580 C.3       1 EQO2        0.0000 
     32 H         -37.6120   41.1605   -9.4071 H         1 EQO2        0.0000 
     33 H         -39.4459   43.5532   -9.4214 H         1 EQO2        0.0000 
     34 H         -41.8060   36.2560   -7.2717 H         1 EQO2        0.0000 
     35 H         -34.0145   35.9487   -5.2670 H         1 EQO2        0.0000 
     36 H         -35.1543   34.5505   -6.8863 H         1 EQO2        0.0000 
     37 H         -35.0855   37.9679   -4.4506 H         1 EQO2        0.0000 
     38 H         -37.3268   35.2004   -7.7381 H         1 EQO2        0.0000 
     39 H         -37.2639   38.6086   -5.2888 H         1 EQO2        0.0000 
     40 H         -37.6933   44.9431   -9.7285 H         1 EQO2        0.0000 
     41 H         -35.6804   41.3637  -10.5821 H         1 EQO2        0.0000 
     42 H         -41.6998   42.9490   -9.6873 H         1 EQO2        0.0000 
     43 H         -35.8320   46.1975  -10.6538 H         1 EQO2        0.0000 
     44 H         -33.8174   42.6082  -11.4767 H         1 EQO2        0.0000 
     45 H         -43.5656   41.4732   -9.2852 H         1 EQO2        0.0000 
     46 H         -39.0468   39.9780   -8.3795 H         1 EQO2        0.0000 
     47 H         -43.9321   37.4284   -6.9795 H         1 EQO2        0.0000 
     48 H         -43.7458   36.9073   -8.6629 H         1 EQO2        0.0000 
     49 H         -43.7166   39.5487   -6.3247 H         1 EQO2        0.0000 
     50 H         -44.6643   40.4429   -7.2673 H         1 EQO2        0.0000 
     51 H         -45.0957   38.9413   -6.8862 H         1 EQO2        0.0000 
     52 H         -44.1192   38.6454  -10.3701 H         1 EQO2        0.0000 
     53 H         -45.3426   38.3933   -9.3572 H         1 EQO2        0.0000 
     54 H         -44.9066   39.8948   -9.7338 H         1 EQO2        0.0000 
@<TRIPOS>BOND
     1   31    1 1    
     2   49    1 1    
     3   50    1 1    
     4   51    1 1    
     5   31    2 1    
     6   52    2 1    
     7   53    2 1    
     8   54    2 1    
     9   23    3 ar   
    10   23    4 ar   
    11    6    5 3    
    12   24    5 1    
    13   25    6 1    
    14    8    7 2    
    15   26    7 1    
    16   32    7 1    
    17   27    8 1    
    18   33    8 1    
    19   22    9 1    
    20   24    9 2    
    21   34    9 1    
    22   11   10 ar   
    23   12   10 ar   
    24   35   10 1    
    25   13   11 ar   
    26   36   11 1    
    27   14   12 ar   
    28   37   12 1    
    29   25   13 ar   
    30   38   13 1    
    31   25   14 ar   
    32   39   14 1    
    33   18   15 ar   
    34   26   15 ar   
    35   40   15 1    
    36   19   16 ar   
    37   26   16 ar   
    38   41   16 1    
    39   20   17 ar   
    40   27   17 ar   
    41   42   17 1    
    42   28   18 ar   
    43   43   18 1    
    44   28   19 ar   
    45   44   19 1    
    46   30   20 ar   
    47   45   20 1    
    48   27   21 ar   
    49   29   21 ar   
    50   46   21 1    
    51   31   22 1    
    52   47   22 1    
    53   48   22 1    
    54   28   23 1    
    55   29   24 1    
    56   30   29 ar   
    57   31   30 1    
@<TRIPOS>SUBSTRUCTURE
     1 EQO2        1 GROUP   
@<TRIPOS>SET

