#    Name: 1H1I_3_CAVITY_N1_6.mol2
#    Modification time : Tue Mar 11 03:45:25 2014

@<TRIPOS>MOLECULE
1H1I_3_CAVITY_N1_6.mol2
   53     0     5     0     0
SMALL
NO_CHARGES


@<TRIPOS>ATOM
      1 CZ         76.4893    3.8563   34.8969 C.ar      4 PHE5        0.0000 
      2 N          77.3655    4.5857   33.9221 N.2       2 ALA2        0.0000 
      3 N          78.2418    5.3152   32.9473 N.2       2 ALA2        0.0000 
      4 CZ         75.4157    4.8856   34.7021 C.ar      4 PHE5        0.0000 
      5 CZ         76.2920    5.6150   33.7273 C.ar      4 PHE5        0.0000 
      6 CZ         77.1682    6.3445   32.7525 C.ar      4 PHE5        0.0000 
      7 CA         75.4905    7.5378   36.7540 C.3       5 GLY6        0.0000 
      8 CZ         79.0880    7.0201   37.2921 C.ar      4 PHE5        0.0000 
      9 CZ         77.1382    7.3200   38.0721 C.ar      4 PHE5        0.0000 
     10 CA         78.0145    8.0494   37.0973 C.3       5 GLY6        0.0000 
     11 CA         78.8907    8.7788   36.1225 C.3       5 GLY6        0.0000 
     12 CA         76.0647    8.3493   37.8773 C.3       5 GLY6        0.0000 
     13 CZ         77.0635    4.6678   36.0202 C.ar      4 PHE5        0.0000 
     14 NZ         77.9397    5.3972   35.0454 N.2       3 LYS4        0.0000 
     15 NZ         78.8159    6.1266   34.0707 N.2       3 LYS4        0.0000 
     16 CZ         75.9899    5.6971   35.8254 C.ar      4 PHE5        0.0000 
     17 CZ         76.8661    6.4265   34.8507 C.ar      4 PHE5        0.0000 
     18 CZ         77.7423    7.1559   33.8759 C.ar      4 PHE5        0.0000 
     19 OG         74.9163    6.7264   35.6306 O.2       1 SER1        0.0000 
     20 CZ         75.7925    7.4558   34.6559 C.ar      4 PHE5        0.0000 
     21 NZ         78.5139    6.2086   36.1688 N.2       3 LYS4        0.0000 
     22 CZ         76.5641    6.5085   36.9488 C.ar      4 PHE5        0.0000 
     23 CA         77.4403    7.2380   35.9740 C.3       5 GLY6        0.0000 
     24 CA         78.3165    7.9674   34.9992 C.3       5 GLY6        0.0000 
     25 CA         76.5193    2.8808   29.5773 C.3       5 GLY6        0.0000 
     26 CA         74.5695    3.1807   30.3573 C.3       5 GLY6        0.0000 
     27 CA         75.4457    3.9101   29.3825 C.3       5 GLY6        0.0000 
     28 CA         72.6197    3.4806   31.1373 C.3       5 GLY6        0.0000 
     29 CA         73.4959    4.2100   30.1625 C.3       5 GLY6        0.0000 
     30 CA         71.5461    4.5099   30.9425 C.3       5 GLY6        0.0000 
     31 CA         72.4223    5.2393   29.9677 C.3       5 GLY6        0.0000 
     32 CA         75.9152    3.0449   33.7735 C.3       5 GLY6        0.0000 
     33 N          76.7914    3.7743   32.7988 N.2       2 ALA2        0.0000 
     34 N          77.6676    4.5037   31.8240 N.2       2 ALA2        0.0000 
     35 CA         74.8416    4.0742   33.5788 C.3       5 GLY6        0.0000 
     36 CA         75.7178    4.8036   32.6040 C.3       5 GLY6        0.0000 
     37 CA         76.5940    5.5330   31.6292 C.3       5 GLY6        0.0000 
     38 OG         73.7680    5.1035   33.3840 O.2       1 SER1        0.0000 
     39 CZ         74.6442    5.8329   32.4092 C.ar      4 PHE5        0.0000 
     40 CA         76.2172    2.9628   31.6754 C.3       5 GLY6        0.0000 
     41 N          77.0934    3.6923   30.7007 N.2       2 ALA2        0.0000 
     42 CA         75.1436    3.9921   31.4807 C.3       5 GLY6        0.0000 
     43 CA         76.0198    4.7216   30.5059 C.3       5 GLY6        0.0000 
     44 CA         73.1938    4.2920   32.2606 C.3       5 GLY6        0.0000 
     45 CZ         74.0700    5.0214   31.2859 C.ar      4 PHE5        0.0000 
     46 CZ         74.9462    5.7509   30.3111 C.ar      4 PHE5        0.0000 
     47 OG         72.1202    5.3213   32.0658 O.2       1 SER1        0.0000 
     48 CZ         72.9965    6.0508   31.0911 C.ar      4 PHE5        0.0000 
     49 OG         74.3422    5.9149   34.5073 O.2       1 SER1        0.0000 
     50 CZ         75.2184    6.6444   33.5325 C.ar      4 PHE5        0.0000 
     51 CZ         77.7124    8.1314   39.1954 C.ar      4 PHE5        0.0000 
     52 CA         78.5886    8.8609   38.2206 C.3       5 GLY6        0.0000 
     53 CA         76.6388    9.1607   39.0006 C.3       5 GLY6        0.0000 
@<TRIPOS>BOND
@<TRIPOS>SUBSTRUCTURE
     1 SER1       19 GROUP   
     2 ALA2        2 GROUP   
     3 LYS4       14 GROUP   
     4 PHE5        1 GROUP   
     5 GLY6        7 GROUP   
@<TRIPOS>SET

