#    Name: 1h1i_QUE_3_INTS_M
#    Modification time : Tue Mar 25 04:19:02 2014

@<TRIPOS>MOLECULE
1h1i_QUE_3_INTS_M
   47     0     9     0     0
SMALL
NO_CHARGES


@<TRIPOS>ATOM
      1 CA         74.6190    1.7480   29.3715 C.3       3 GLC5        0.0000 
      2 CA         74.2600    3.8710   30.0140 C.3       9 GLL5        0.0000 
      3 CA         74.9780   -0.3750   28.7290 C.3       6 GLP5        0.0000 
      4 CA         79.6220    4.6665   32.4020 C.3       3 GLC5        0.0000 
      5 CA         77.7190    5.1170   33.3520 C.3       9 GLL5        0.0000 
      6 CA         81.5250    4.2160   31.4520 C.3       6 GLP5        0.0000 
      7 CA         79.0230    6.2065   32.1225 C.3       3 GLC5        0.0000 
      8 CA         80.3270    7.2960   30.8930 C.3       6 GLP5        0.0000 
      9 CA         75.4895    4.5750   35.5740 C.3       3 GLC5        0.0000 
     10 CA         76.7130    5.5520   34.1510 C.3       9 GLL5        0.0000 
     11 CA         74.2660    3.5980   36.9970 C.3       6 GLP5        0.0000 
     12 N          80.3355    4.6570   33.2495 N.am      2 SEC2        0.0000 
     13 N          78.9890    5.1640   33.7390 N.am      8 SEL2        0.0000 
     14 N          81.6820    4.1500   32.7600 N.am      5 SEP2        0.0000 
     15 O          71.2125    4.1880   31.6085 O.2       1 ALC1        0.0000 
     16 O          72.0030    4.2410   30.5940 O.2       7 ALL1        0.0000 
     17 O          70.4220    4.1350   32.6230 O.2       4 ALP1        0.0000 
     18 CA         74.6363    2.6322   31.2548 C.3       3 GLC5        0.0000 
     19 CA         74.3330    1.3610   32.3370 C.3       6 GLP5        0.0000 
     20 CA         72.5012    3.3472   29.2148 C.3       3 GLC5        0.0000 
     21 CA         71.2290    2.5900   27.9600 C.3       6 GLP5        0.0000 
     22 CA         76.6703    5.5343   29.9252 C.3       3 GLC5        0.0000 
     23 CA         75.6190    3.9360   30.3310 C.3       9 GLL5        0.0000 
     24 CA         77.5250    6.8610   28.8700 C.3       6 GLP5        0.0000 
     25 CA         74.9083    3.0397   32.2127 C.3       3 GLC5        0.0000 
     26 CA         76.0120    4.4790   31.6300 C.3       9 GLL5        0.0000 
     27 CA         73.8905    2.9842   31.9425 C.3       3 GLC5        0.0000 
     28 CA         73.6090    4.8770   32.1710 C.3       9 GLL5        0.0000 
     29 CA         73.7821    4.8844   28.8789 C.3       3 GLC5        0.0000 
     30 CA         73.2870    4.3380   30.9250 C.3       9 GLL5        0.0000 
     31 CA         73.4510    5.6480   27.2090 C.3       6 GLP5        0.0000 
     32 CA         76.5325    6.9772   32.9357 C.3       3 GLC5        0.0000 
     33 CA         75.8490    8.6200   32.1200 C.3       6 GLP5        0.0000 
     34 CA         76.5835    8.4883   35.4910 C.3       3 GLC5        0.0000 
     35 CA         76.8740    6.3650   35.3980 C.3       9 GLL5        0.0000 
     36 CA         76.8940   10.3910   35.2940 C.3       6 GLP5        0.0000 
     37 CA         76.5875    9.0650   36.3678 C.3       3 GLC5        0.0000 
     38 CA         75.6740    7.5660   37.1390 C.3       9 GLL5        0.0000 
     39 CA         75.4673    7.0225   38.6971 C.3       3 GLC5        0.0000 
     40 CA         76.8880    7.9120   37.7440 C.3       9 GLL5        0.0000 
     41 CA         74.6540    6.4960   40.2430 C.3       6 GLP5        0.0000 
     42 CA         78.2910    9.3793   38.5375 C.3       3 GLC5        0.0000 
     43 CA         79.0630   11.0690   39.6370 C.3       6 GLP5        0.0000 
     44 CA         77.5122    8.7353   35.9235 C.3       3 GLC5        0.0000 
     45 CA         78.1500    7.4670   37.1320 C.3       9 GLL5        0.0000 
     46 CA         80.0747    6.8157   36.6620 C.3       3 GLC5        0.0000 
     47 CA         82.0190    6.5520   36.7710 C.3       6 GLP5        0.0000 
@<TRIPOS>BOND
@<TRIPOS>SUBSTRUCTURE
     1 ALC1       15 GROUP        1 X    ALC  0     ROOT ALC X 1
     2 SEC2       12 GROUP        1 X    SEC  0     **** SEC X 2
     3 GLC5        1 GROUP        1 X    GLC  0     **** GLC X 6
     4 ALP1       17 GROUP        1 Y    ALP  0     ROOT ALP Y 8
     5 SEP2       14 GROUP        1 Y    SEP  0     **** SEP Y 9
     6 GLP5        3 GROUP        1 Y    GLP  0     **** GLP Y 13
     7 ALL1       16 GROUP        1 Z    ALL  0     ROOT ALL Z 15
     8 SEL2       13 GROUP        1 Z    SEL  0     **** SEL Z 16
     9 GLL5        2 GROUP        1 Z    GLL  0     **** GLL Z 20
@<TRIPOS>SET

