#    Name: 1h1i_QUE_3_ligand
#    Modification time : Tue Mar 25 04:19:02 2014

@<TRIPOS>MOLECULE
1h1i_QUE_3_ligand
   32    34     1     0     0
SMALL
NO_CHARGES


@<TRIPOS>ATOM
      1 C1         74.2600    3.8710   30.0140 C.ar      1 QUE1358     0.0000 
      2 C2         75.6190    3.9360   30.3310 C.ar      1 QUE1358     0.0000 
      3 C3         76.0120    4.4790   31.6300 C.ar      1 QUE1358     0.0000 
      4 C4         74.9550    4.9580   32.5470 C.ar      1 QUE1358     0.0000 
      5 C5         73.6090    4.8770   32.1710 C.ar      1 QUE1358     0.0000 
      6 C6         73.2870    4.3380   30.9250 C.ar      1 QUE1358     0.0000 
      7 C9         77.4430    4.5730   32.0390 C.2       1 QUE1358     0.0000 
      8 C10        77.7190    5.1170   33.3520 C.2       1 QUE1358     0.0000 
      9 C11        76.7130    5.5520   34.1510 C.2       1 QUE1358     0.0000 
     10 C14        76.8740    6.3650   35.3980 C.ar      1 QUE1358     0.0000 
     11 C15        75.6720    6.8060   35.9780 C.ar      1 QUE1358     0.0000 
     12 C16        75.6740    7.5660   37.1390 C.ar      1 QUE1358     0.0000 
     13 C17        76.8880    7.9120   37.7440 C.ar      1 QUE1358     0.0000 
     14 C18        78.1500    7.4670   37.1320 C.ar      1 QUE1358     0.0000 
     15 C19        78.1110    6.6920   35.9740 C.ar      1 QUE1358     0.0000 
     16 O12        75.3250    5.4590   33.7460 O.3       1 QUE1358     0.0000 
     17 O13        78.3400    4.1920   31.2800 O.2       1 QUE1358     0.0000 
     18 O23        79.2830    7.8340   37.7460 O.3       1 QUE1358     0.0000 
     19 O24        76.9390    8.6390   38.8670 O.3       1 QUE1358     0.0000 
     20 O27        78.9890    5.1640   33.7390 O.3       1 QUE1358     0.0000 
     21 O29        72.0030    4.2410   30.5940 O.3       1 QUE1358     0.0000 
     22 O30        76.5580    3.4930   29.5040 O.3       1 QUE1358     0.0000 
     23 H          73.9589    3.4813   29.1121 H         1 QUE1358     0.0000 
     24 H          72.8777    5.2069   32.7987 H         1 QUE1358     0.0000 
     25 H          74.7763    6.5561   35.5265 H         1 QUE1358     0.0000 
     26 H          74.7898    7.8766   37.5577 H         1 QUE1358     0.0000 
     27 H          78.9782    6.3611   35.5428 H         1 QUE1358     0.0000 
     28 H          79.9986    7.2793   37.3216 H         1 QUE1358     0.0000 
     29 H          76.6739    8.0079   39.5960 H         1 QUE1358     0.0000 
     30 H          79.1654    6.1294   33.9309 H         1 QUE1358     0.0000 
     31 H          71.5147    4.1869   31.4650 H         1 QUE1358     0.0000 
     32 H          77.4180    3.6169   29.9989 H         1 QUE1358     0.0000 
@<TRIPOS>BOND
     1    2    1 ar   
     2    6    1 ar   
     3   23    1 1    
     4    3    2 ar   
     5   22    2 1    
     6    4    3 ar   
     7    7    3 1    
     8    5    4 ar   
     9   16    4 1    
    10    6    5 ar   
    11   24    5 1    
    12   21    6 1    
    13    8    7 1    
    14   17    7 2    
    15    9    8 2    
    16   20    8 1    
    17   10    9 1    
    18   16    9 1    
    19   11   10 ar   
    20   15   10 ar   
    21   12   11 ar   
    22   25   11 1    
    23   13   12 ar   
    24   26   12 1    
    25   14   13 ar   
    26   19   13 1    
    27   15   14 ar   
    28   18   14 1    
    29   27   15 1    
    30   28   18 1    
    31   29   19 1    
    32   30   20 1    
    33   31   21 1    
    34   32   22 1    
@<TRIPOS>SUBSTRUCTURE
     1 QUE1358     1 GROUP   
@<TRIPOS>SET

