#    Name: 2cg9_ATP_1_INTS_M
#    Modification time : Mon Mar 24 23:44:56 2014

@<TRIPOS>MOLECULE
2cg9_ATP_1_INTS_M
   49     0    12     0     0
SMALL
NO_CHARGES


@<TRIPOS>ATOM
      1 N        -148.8650  -54.7925   29.2260 N.am      2 SEC2        0.0000 
      2 N        -148.5470  -55.8740   29.8730 N.am     10 SEL2        0.0000 
      3 N        -149.1830  -53.7110   28.5790 N.am      6 SEP2        0.0000 
      4 N        -149.9670  -57.5645   32.9315 N.am      2 SEC2        0.0000 
      5 N        -148.9120  -57.3970   31.9400 N.am     10 SEL2        0.0000 
      6 N        -151.0220  -57.7320   33.9230 N.am      6 SEP2        0.0000 
      7 N        -149.1165  -56.4385   32.8280 N.am      2 SEC2        0.0000 
      8 N        -149.3210  -55.4800   33.7160 N.am      6 SEP2        0.0000 
      9 NZ       -145.7520  -58.1855   29.9425 N.4       3 LYC4        0.0000 
     10 NZ       -147.1520  -57.9600   30.2460 N.4      11 LYL4        0.0000 
     11 NZ       -144.3520  -58.4110   29.6390 N.4       7 LYP4        0.0000 
     12 N        -150.2315  -59.0295   30.9620 N.am      2 SEC2        0.0000 
     13 N        -149.4670  -58.1610   29.7070 N.am     10 SEL2        0.0000 
     14 N        -150.9960  -59.8980   32.2170 N.am      6 SEP2        0.0000 
     15 N        -151.7860  -54.2510   32.5710 N.am      2 SEC2        0.0000 
     16 N        -152.9070  -55.4580   32.0460 N.am     10 SEL2        0.0000 
     17 N        -150.6650  -53.0440   33.0960 N.am      6 SEP2        0.0000 
     18 CA       -153.1245  -57.9075   30.8550 C.3       4 GLC5        0.0000 
     19 CA       -154.0290  -56.6860   29.3670 C.3      12 GLL5        0.0000 
     20 CA       -152.2200  -59.1290   32.3430 C.3       8 GLP5        0.0000 
     21 CA       -155.2815  -57.7935   26.2315 C.3       4 GLC5        0.0000 
     22 CA       -155.5890  -56.2960   27.3810 C.3      12 GLL5        0.0000 
     23 CA       -154.9740  -59.2910   25.0820 C.3       8 GLP5        0.0000 
     24 CA       -152.3435  -51.5165   26.5950 C.3       4 GLC5        0.0000 
     25 CA       -154.3470  -51.1430   25.8220 C.3      12 GLL5        0.0000 
     26 CA       -150.3400  -51.8900   27.3680 C.3       8 GLP5        0.0000 
     27 CA       -152.3785  -49.9745   23.9550 C.3       4 GLC5        0.0000 
     28 CA       -154.4620  -50.2600   24.6320 C.3      12 GLL5        0.0000 
     29 CA       -150.2950  -49.6890   23.2780 C.3       8 GLP5        0.0000 
     30 CA       -154.0530  -50.7605   22.9010 C.3       4 GLC5        0.0000 
     31 CA       -153.6440  -51.2610   21.1700 C.3       8 GLP5        0.0000 
     32 O        -153.6185  -47.7610   23.8605 O.2       1 ALC1        0.0000 
     33 O        -153.5240  -49.3240   24.3600 O.2       9 ALL1        0.0000 
     34 O        -153.7130  -46.1980   23.3610 O.2       5 ALP1        0.0000 
     35 CA       -155.0635  -51.3065   22.6290 C.3       4 GLC5        0.0000 
     36 CA       -156.4830  -51.3520   24.0880 C.3      12 GLL5        0.0000 
     37 CA       -157.8805  -50.5510   22.7905 C.3       4 GLC5        0.0000 
     38 CA       -159.2780  -49.7500   21.4930 C.3       8 GLP5        0.0000 
     39 CA       -157.6300  -50.8710   25.3105 C.3       4 GLC5        0.0000 
     40 CA       -158.7770  -50.3900   26.5330 C.3       8 GLP5        0.0000 
     41 CA       -157.2835  -52.1395   26.3855 C.3       4 GLC5        0.0000 
     42 CA       -155.4250  -52.1370   26.0390 C.3      12 GLL5        0.0000 
     43 CA       -159.1420  -52.1420   26.7320 C.3       8 GLP5        0.0000 
     44 CA       -155.1837  -58.3802   28.4776 C.3       4 GLC5        0.0000 
     45 CA       -155.2540  -60.4520   28.7190 C.3       8 GLP5        0.0000 
     46 CA       -157.5980  -53.3085   27.0252 C.3       4 GLC5        0.0000 
     47 CA       -156.2500  -55.0330   26.8460 C.3      12 GLL5        0.0000 
     48 CA       -157.7395  -56.1463   28.1981 C.3       4 GLC5        0.0000 
     49 CA       -159.6450  -56.7130   28.9240 C.3       8 GLP5        0.0000 
@<TRIPOS>BOND
@<TRIPOS>SUBSTRUCTURE
     1 ALC1       32 GROUP        1 X    ALC  0     ROOT ALC X 1
     2 SEC2        1 GROUP        1 X    SEC  0     **** SEC X 2
     3 LYC4        9 GROUP        1 X    LYC  0     **** LYC X 4
     4 GLC5       18 GROUP        1 X    GLC  0     **** GLC X 6
     5 ALP1       34 GROUP        1 Y    ALP  0     ROOT ALP Y 8
     6 SEP2        3 GROUP        1 Y    SEP  0     **** SEP Y 9
     7 LYP4       11 GROUP        1 Y    LYP  0     **** LYP Y 11
     8 GLP5       20 GROUP        1 Y    GLP  0     **** GLP Y 13
     9 ALL1       33 GROUP        1 Z    ALL  0     ROOT ALL Z 15
    10 SEL2        2 GROUP        1 Z    SEL  0     **** SEL Z 16
    11 LYL4       10 GROUP        1 Z    LYL  0     **** LYL Z 18
    12 GLL5       19 GROUP        1 Z    GLL  0     **** GLL Z 20
@<TRIPOS>SET

