#    Name: 2cg9_ATP_1_ligand
#    Modification time : Mon Mar 24 23:44:56 2014

@<TRIPOS>MOLECULE
2cg9_ATP_1_ligand
   43    45     1     0     0
SMALL
NO_CHARGES


@<TRIPOS>ATOM
      1 PG       -148.4420  -57.2510   30.5100 P.3       1 ATP1678     0.0000 
      2 O1G      -148.5470  -55.8740   29.8730 O.co2     1 ATP1678     0.0000 
      3 O2G      -148.9120  -57.3970   31.9400 O.co2     1 ATP1678     0.0000 
      4 O3G      -147.1520  -57.9600   30.2460 O.co2     1 ATP1678     0.0000 
      5 PB       -150.8260  -57.4520   29.3130 P.3       1 ATP1678     0.0000 
      6 O1B      -150.4480  -56.1890   28.5700 O.co2     1 ATP1678     0.0000 
      7 O2B      -151.7760  -58.4650   28.7410 O.co2     1 ATP1678     0.0000 
      8 O3B      -149.4670  -58.1610   29.7070 O.3       1 ATP1678     0.0000 
      9 PA       -152.0540  -55.6110   30.8080 P.3       1 ATP1678     0.0000 
     10 O1A      -150.9000  -54.6710   30.5950 O.co2     1 ATP1678     0.0000 
     11 O2A      -152.9070  -55.4580   32.0460 O.co2     1 ATP1678     0.0000 
     12 O3A      -151.4040  -57.0560   30.7370 O.3       1 ATP1678     0.0000 
     13 O5'      -152.9770  -55.7320   29.4960 O.3       1 ATP1678     0.0000 
     14 C5'      -154.0290  -56.6860   29.3670 C.3       1 ATP1678     0.0000 
     15 C4'      -155.2470  -55.9560   28.8160 C.3       1 ATP1678     0.0000 
     16 O4'      -155.0530  -54.5410   28.7990 O.3       1 ATP1678     0.0000 
     17 C3'      -155.5890  -56.2960   27.3810 C.3       1 ATP1678     0.0000 
     18 O3'      -156.4870  -57.4130   27.3730 O.3       1 ATP1678     0.0000 
     19 C2'      -156.2500  -55.0330   26.8460 C.3       1 ATP1678     0.0000 
     20 O2'      -157.6740  -55.1320   26.9300 O.3       1 ATP1678     0.0000 
     21 C1'      -155.8580  -53.9170   27.7910 C.3       1 ATP1678     0.0000 
     22 N9       -155.0990  -52.8140   27.1430 N.pl3     1 ATP1678     0.0000 
     23 C8       -153.9370  -52.2990   27.6080 C.2       1 ATP1678     0.0000 
     24 N7       -153.4660  -51.2910   26.8280 N.2       1 ATP1678     0.0000 
     25 C5       -154.3470  -51.1430   25.8220 C.ar      1 ATP1678     0.0000 
     26 C6       -154.4620  -50.2600   24.6320 C.ar      1 ATP1678     0.0000 
     27 N6       -153.5240  -49.3240   24.3600 N.pl3     1 ATP1678     0.0000 
     28 N1       -155.5410  -50.4200   23.8320 N.ar      1 ATP1678     0.0000 
     29 C2       -156.4830  -51.3520   24.0880 C.ar      1 ATP1678     0.0000 
     30 N3       -156.4420  -52.1910   25.1460 N.ar      1 ATP1678     0.0000 
     31 C4       -155.4250  -52.1370   26.0390 C.ar      1 ATP1678     0.0000 
     32 H        -154.3028  -57.1227   30.3252 H         1 ATP1678     0.0000 
     33 H        -153.7724  -57.4843   28.6736 H         1 ATP1678     0.0000 
     34 H        -156.1153  -56.1944   29.4254 H         1 ATP1678     0.0000 
     35 H        -154.6930  -56.4689   26.8525 H         1 ATP1678     0.0000 
     36 H        -155.9008  -54.8156   25.8883 H         1 ATP1678     0.0000 
     37 H        -156.7632  -53.5295   28.2426 H         1 ATP1678     0.0000 
     38 H        -153.4791  -52.6189   28.4248 H         1 ATP1678     0.0000 
     39 H        -152.7778  -49.2438   25.0209 H         1 ATP1678     0.0000 
     40 H        -153.6599  -48.7953   23.5221 H         1 ATP1678     0.0000 
     41 H        -157.3087  -51.4312   23.4157 H         1 ATP1678     0.0000 
     42 H        -157.3780  -57.0269   27.1342 H         1 ATP1678     0.0000 
     43 H        -157.9686  -54.2742   27.3510 H         1 ATP1678     0.0000 
@<TRIPOS>BOND
     1    2    1 ar   
     2    3    1 ar   
     3    4    1 ar   
     4    8    1 1    
     5    6    5 ar   
     6    7    5 ar   
     7    8    5 1    
     8   12    5 1    
     9   10    9 ar   
    10   11    9 ar   
    11   12    9 1    
    12   13    9 1    
    13   14   13 1    
    14   15   14 1    
    15   32   14 1    
    16   33   14 1    
    17   16   15 1    
    18   17   15 1    
    19   34   15 1    
    20   21   16 1    
    21   18   17 1    
    22   19   17 1    
    23   35   17 1    
    24   42   18 1    
    25   20   19 1    
    26   21   19 1    
    27   36   19 1    
    28   43   20 1    
    29   22   21 1    
    30   37   21 1    
    31   23   22 1    
    32   31   22 1    
    33   24   23 2    
    34   38   23 1    
    35   25   24 1    
    36   26   25 ar   
    37   31   25 ar   
    38   27   26 1    
    39   28   26 ar   
    40   39   27 1    
    41   40   27 1    
    42   29   28 ar   
    43   30   29 ar   
    44   41   29 1    
    45   31   30 ar   
@<TRIPOS>SUBSTRUCTURE
     1 ATP1678     1 GROUP   
@<TRIPOS>SET

