#    Name: 3up7_0C9_1_INTS_M
#    Modification time : Mon Mar 24 23:12:20 2014

@<TRIPOS>MOLECULE
3up7_0C9_1_INTS_M
   78     0    12     0     0
SMALL
NO_CHARGES


@<TRIPOS>ATOM
      1 O          -2.7210  -34.1520    7.3115 O.2       1 ALC1        0.0000 
      2 O          -3.0820  -32.8410    6.7800 O.2       9 ALL1        0.0000 
      3 O          -2.3600  -35.4630    7.8430 O.2       5 ALP1        0.0000 
      4 N          -2.9205  -32.7695    9.5535 N.am      2 SEC2        0.0000 
      5 N          -3.2210  -31.5660    8.6170 N.am     10 SEL2        0.0000 
      6 N          -2.6200  -33.9730   10.4900 N.am      6 SEP2        0.0000 
      7 CA         -1.3185  -31.4450    6.1545 C.3       4 GLC5        0.0000 
      8 CA         -2.6350  -33.0570    5.5700 C.3      12 GLL5        0.0000 
      9 CA         -0.0020  -29.8330    6.7390 C.3       8 GLP5        0.0000 
     10 CA         -1.7445  -30.7795    7.0185 C.3       4 GLC5        0.0000 
     11 CA         -3.4870  -31.7260    7.2980 C.3      12 GLL5        0.0000 
     12 CA         -4.0285  -33.4120    8.4150 C.3       4 GLC5        0.0000 
     13 CA         -4.5700  -35.0980    9.5320 C.3       8 GLP5        0.0000 
     14 CA         -5.3645  -32.0420    7.9700 C.3       4 GLC5        0.0000 
     15 CA         -7.2420  -32.3580    8.6420 C.3       8 GLP5        0.0000 
     16 CA         -5.0680  -27.9335    9.8560 C.3       4 GLC5        0.0000 
     17 CA         -4.3200  -29.3940    8.5080 C.3      12 GLL5        0.0000 
     18 CA         -5.8160  -26.4730   11.2040 C.3       8 GLP5        0.0000 
     19 CA         -1.8240  -30.1175    7.9635 C.3       4 GLC5        0.0000 
     20 CA         -3.6460  -30.4020    9.1880 C.3      12 GLL5        0.0000 
     21 CA         -5.4465  -30.3325   10.5060 C.3       4 GLC5        0.0000 
     22 CA         -7.2470  -30.2630   11.8240 C.3       8 GLP5        0.0000 
     23 CA         -2.5215  -31.3935   10.5655 C.3       4 GLC5        0.0000 
     24 CA         -1.3970  -32.3850   11.9430 C.3       8 GLP5        0.0000 
     25 CA         -2.3410  -29.1015    4.2945 C.3       4 GLC5        0.0000 
     26 CA         -4.3710  -28.9820    4.2370 C.3      12 GLL5        0.0000 
     27 CA         -0.3110  -29.2210    4.3520 C.3       8 GLP5        0.0000 
     28 CA         -3.5280  -27.4150    4.9175 C.3       4 GLC5        0.0000 
     29 CA         -2.6850  -25.8480    5.5980 C.3       8 GLP5        0.0000 
     30 CA         -5.7125  -26.4795    2.0020 C.3       4 GLC5        0.0000 
     31 CA         -5.8900  -28.5240    2.3520 C.3      12 GLL5        0.0000 
     32 CA         -5.5350  -24.4350    1.6520 C.3       8 GLP5        0.0000 
     33 CA         -6.9835  -26.3185    2.5805 C.3       4 GLC5        0.0000 
     34 CA         -6.9320  -28.1830    3.2600 C.3      12 GLL5        0.0000 
     35 CA         -7.0350  -24.4540    1.9010 C.3       8 GLP5        0.0000 
     36 NZ         -7.8945  -25.6120    7.3785 N.4       3 LYC4        0.0000 
     37 NZ         -7.7010  -26.8650    6.1930 N.4      11 LYL4        0.0000 
     38 NZ         -8.0880  -24.3590    8.5640 N.4       7 LYP4        0.0000 
     39 N          -7.8945  -25.6120    7.3785 N.am      2 SEC2        0.0000 
     40 N          -7.7010  -26.8650    6.1930 N.am     10 SEL2        0.0000 
     41 N          -8.0880  -24.3590    8.5640 N.am      6 SEP2        0.0000 
     42 N         -10.1450  -27.9580    5.8815 N.am      2 SEC2        0.0000 
     43 N          -8.8530  -28.6910    5.6250 N.am     10 SEL2        0.0000 
     44 N         -11.4370  -27.2250    6.1380 N.am      6 SEP2        0.0000 
     45 NZ         -2.6500  -35.5760    0.2810 N.4       3 LYC4        0.0000 
     46 NZ         -1.7710  -34.5310    0.9410 N.4      11 LYL4        0.0000 
     47 NZ         -3.5290  -36.6210   -0.3790 N.4       7 LYP4        0.0000 
     48 NZ          1.2055  -33.5580    2.0010 N.4       3 LYC4        0.0000 
     49 NZ          0.1200  -33.5020    1.3590 N.4      11 LYL4        0.0000 
     50 NZ          3.1090  -32.7110    2.1200 N.4       7 LYP4        0.0000 
     51 N           1.3945  -32.7030    1.2600 N.am      2 SEC2        0.0000 
     52 N           0.1200  -33.5020    1.3590 N.am     10 SEL2        0.0000 
     53 N           2.6690  -31.9040    1.1610 N.am      6 SEP2        0.0000 
     54 N           1.2055  -33.5580    2.0010 N.am      2 SEC2        0.0000 
     55 N           2.2910  -33.6140    2.6430 N.am      6 SEP2        0.0000 
     56 CA         -3.1787  -34.7328    3.5295 C.3       4 GLC5        0.0000 
     57 CA         -1.6060  -33.6190    2.9490 C.3      12 GLL5        0.0000 
     58 CA         -4.1080  -36.1440    4.0400 C.3       8 GLP5        0.0000 
     59 CA         -5.2242  -32.9435    3.2388 C.3       4 GLC5        0.0000 
     60 CA         -2.8930  -33.0240    3.0890 C.3      12 GLL5        0.0000 
     61 CA         -7.2990  -33.0020    2.7370 C.3       8 GLP5        0.0000 
     62 CA         -2.6022  -34.9650    4.4020 C.3       4 GLC5        0.0000 
     63 CA         -0.8400  -33.9260    4.1150 C.3      12 GLL5        0.0000 
     64 CA          0.0220  -32.3326    4.7183 C.3       4 GLC5        0.0000 
     65 CA         -1.3530  -33.6460    5.4130 C.3      12 GLL5        0.0000 
     66 CA          1.3320  -30.9560    4.9640 C.3       8 GLP5        0.0000 
     67 CA         -3.5642  -34.5228    4.5105 C.3       4 GLC5        0.0000 
     68 CA         -3.4177  -28.0842    7.3470 C.3       4 GLC5        0.0000 
     69 CA         -4.5550  -29.6390    7.1540 C.3      12 GLL5        0.0000 
     70 CA         -2.3980  -26.6520    6.8630 C.3       8 GLP5        0.0000 
     71 CA         -2.6735  -29.1395    9.6805 C.3       4 GLC5        0.0000 
     72 CA         -1.3640  -28.3810   10.5130 C.3       8 GLP5        0.0000 
     73 CA         -5.6419  -31.1586    8.5757 C.3       4 GLC5        0.0000 
     74 CA         -5.0695  -26.8540    5.2890 C.3       4 GLC5        0.0000 
     75 CA         -5.4060  -28.6470    5.1880 C.3      12 GLL5        0.0000 
     76 CA         -4.0780  -25.2660    5.6430 C.3       8 GLP5        0.0000 
     77 CA         -3.7212  -28.0204    1.8941 C.3       4 GLC5        0.0000 
     78 CA         -2.2510  -27.3030    0.8430 C.3       8 GLP5        0.0000 
@<TRIPOS>BOND
@<TRIPOS>SUBSTRUCTURE
     1 ALC1        1 GROUP        1 X    ALC  0     ROOT ALC X 1
     2 SEC2        4 GROUP        1 X    SEC  0     **** SEC X 2
     3 LYC4       36 GROUP        1 X    LYC  0     **** LYC X 4
     4 GLC5        7 GROUP        1 X    GLC  0     **** GLC X 6
     5 ALP1        3 GROUP        1 Y    ALP  0     ROOT ALP Y 8
     6 SEP2        6 GROUP        1 Y    SEP  0     **** SEP Y 9
     7 LYP4       38 GROUP        1 Y    LYP  0     **** LYP Y 11
     8 GLP5        9 GROUP        1 Y    GLP  0     **** GLP Y 13
     9 ALL1        2 GROUP        1 Z    ALL  0     ROOT ALL Z 15
    10 SEL2        5 GROUP        1 Z    SEL  0     **** SEL Z 16
    11 LYL4       37 GROUP        1 Z    LYL  0     **** LYL Z 18
    12 GLL5        8 GROUP        1 Z    GLL  0     **** GLL Z 20
@<TRIPOS>SET

