#    Name: 3up7_0C9_1_ligand
#    Modification time : Mon Mar 24 23:12:20 2014

@<TRIPOS>MOLECULE
3up7_0C9_1_ligand
   38    40     1     0     0
SMALL
NO_CHARGES


@<TRIPOS>ATOM
      1 N01        -3.0820  -32.8410    6.7800 N.pl3     1 0C91        0.0000 
      2 N02        -4.1460  -30.8060    6.5250 N.ar      1 0C91        0.0000 
      3 N03        -3.2210  -31.5660    8.6170 N.ar      1 0C91        0.0000 
      4 N04        -5.1910  -28.6980    6.4890 N.pl3     1 0C91        0.0000 
      5 C05        -2.8930  -33.0240    3.0890 C.ar      1 0C91        0.0000 
      6 C06        -1.6060  -33.6190    2.9490 C.ar      1 0C91        0.0000 
      7 C07        -0.8400  -33.9260    4.1150 C.ar      1 0C91        0.0000 
      8 C08        -1.3530  -33.6460    5.4130 C.ar      1 0C91        0.0000 
      9 C09        -2.6350  -33.0570    5.5700 C.ar      1 0C91        0.0000 
     10 C10        -3.4060  -32.7460    4.3920 C.ar      1 0C91        0.0000 
     11 C11        -1.1080  -33.9020    1.7160 C.2       1 0C91        0.0000 
     12 C12        -3.4870  -31.7260    7.2980 C.ar      1 0C91        0.0000 
     13 C13        -4.5550  -29.6390    7.1540 C.ar      1 0C91        0.0000 
     14 C14        -4.3200  -29.3940    8.5080 C.ar      1 0C91        0.0000 
     15 C15        -3.6460  -30.4020    9.1880 C.ar      1 0C91        0.0000 
     16 C16        -5.4060  -28.6470    5.1880 C.ar      1 0C91        0.0000 
     17 C17        -4.3710  -28.9820    4.2370 C.ar      1 0C91        0.0000 
     18 C18        -4.6150  -28.9210    2.8400 C.ar      1 0C91        0.0000 
     19 C19        -5.8900  -28.5240    2.3520 C.ar      1 0C91        0.0000 
     20 C20        -6.9320  -28.1830    3.2600 C.ar      1 0C91        0.0000 
     21 C21        -6.7160  -28.2370    4.6820 C.ar      1 0C91        0.0000 
     22 C22        -7.7590  -27.8940    5.5340 C.2       1 0C91        0.0000 
     23 O23        -7.7010  -26.8650    6.1930 O.co2     1 0C91        0.0000 
     24 O24        -8.8530  -28.6910    5.6250 O.co2     1 0C91        0.0000 
     25 O25        -1.7710  -34.5310    0.9410 O.co2     1 0C91        0.0000 
     26 O26         0.1200  -33.5020    1.3590 O.co2     1 0C91        0.0000 
     27 H          -3.1167  -33.7330    7.4455 H         1 0C91        0.0000 
     28 H          -5.5882  -27.8600    7.0827 H         1 0C91        0.0000 
     29 H          -3.4433  -32.7984    2.2674 H         1 0C91        0.0000 
     30 H           0.0830  -34.3498    4.0143 H         1 0C91        0.0000 
     31 H          -0.7927  -33.8714    6.2371 H         1 0C91        0.0000 
     32 H          -4.3272  -32.3229    4.4972 H         1 0C91        0.0000 
     33 H          -4.6158  -28.5543    8.9535 H         1 0C91        0.0000 
     34 H          -3.4538  -30.2454   10.2223 H         1 0C91        0.0000 
     35 H          -3.4539  -29.2656    4.5862 H         1 0C91        0.0000 
     36 H          -3.8732  -29.1628    2.1827 H         1 0C91        0.0000 
     37 H          -6.0596  -28.4831    1.3474 H         1 0C91        0.0000 
     38 H          -7.8446  -27.8963    2.9056 H         1 0C91        0.0000 
@<TRIPOS>BOND
     1    9    1 1    
     2   12    1 1    
     3   27    1 1    
     4   12    2 ar   
     5   13    2 ar   
     6   12    3 ar   
     7   15    3 ar   
     8   13    4 1    
     9   16    4 1    
    10   28    4 1    
    11    6    5 ar   
    12   10    5 ar   
    13   29    5 1    
    14    7    6 ar   
    15   11    6 1    
    16    8    7 ar   
    17   30    7 1    
    18    9    8 ar   
    19   31    8 1    
    20   10    9 ar   
    21   32   10 1    
    22   25   11 ar   
    23   26   11 ar   
    24   14   13 ar   
    25   15   14 ar   
    26   33   14 1    
    27   34   15 1    
    28   17   16 ar   
    29   21   16 ar   
    30   18   17 ar   
    31   35   17 1    
    32   19   18 ar   
    33   36   18 1    
    34   20   19 ar   
    35   37   19 1    
    36   21   20 ar   
    37   38   20 1    
    38   22   21 1    
    39   23   22 ar   
    40   24   22 ar   
@<TRIPOS>SUBSTRUCTURE
     1 0C91        1 GROUP   
@<TRIPOS>SET

