#    Name: 3vth_AP2_2_INTS_M
#    Modification time : Tue Mar 25 01:35:44 2014

@<TRIPOS>MOLECULE
3vth_AP2_2_INTS_M
   61     0    12     0     0
SMALL
NO_CHARGES


@<TRIPOS>ATOM
      1 N          89.1295    4.3365  -12.2175 N.am      2 SEC2        0.0000 
      2 N          88.2820    3.9430  -11.1860 N.am     10 SEL2        0.0000 
      3 N          89.9770    4.7300  -13.2490 N.am      6 SEP2        0.0000 
      4 N          87.9055    5.0840  -11.7455 N.am      2 SEC2        0.0000 
      5 N          87.5290    6.2250  -12.3050 N.am      6 SEP2        0.0000 
      6 Zn         89.6675    4.5485   -8.3110 Zn        3 ZIC7        0.0000 
      7 Zn         88.8040    4.5910   -8.7690 Zn       11 ZIL7        0.0000 
      8 Zn         90.5310    4.5060   -7.8530 Zn        7 ZIP7        0.0000 
      9 N          88.2640    3.6980   -7.6325 N.am      2 SEC2        0.0000 
     10 N          88.8040    4.5910   -8.7690 N.am     10 SEL2        0.0000 
     11 N          87.7240    2.8050   -6.4960 N.am      6 SEP2        0.0000 
     12 N          85.6690    4.8345  -10.4170 N.am      2 SEC2        0.0000 
     13 N          86.4720    3.8830   -9.4630 N.am     10 SEL2        0.0000 
     14 N          84.8660    5.7860  -11.3710 N.am      6 SEP2        0.0000 
     15 CA         86.4660    1.7570   -9.1425 C.3       4 GLC5        0.0000 
     16 CA         88.3550    2.0650   -9.3990 C.3      12 GLL5        0.0000 
     17 CA         84.5770    1.4490   -8.8860 C.3       8 GLP5        0.0000 
     18 CA         88.6165    1.5490   -7.3880 C.3       4 GLC5        0.0000 
     19 CA         88.8780    1.0330   -5.3770 C.3       8 GLP5        0.0000 
     20 N          90.5720    0.1480   -7.5300 N.am      2 SEC2        0.0000 
     21 N          90.1070    0.2280   -8.9520 N.am     10 SEL2        0.0000 
     22 N          91.0370    0.0680   -6.1080 N.am      6 SEP2        0.0000 
     23 Zn         90.8075    3.5820   -8.4025 Zn        3 ZIC7        0.0000 
     24 Zn         91.0840    2.6580   -8.9520 Zn       11 ZIL7        0.0000 
     25 N          92.5245    2.4010   -9.5440 N.am      2 SEC2        0.0000 
     26 N          91.0840    2.6580   -8.9520 N.am     10 SEL2        0.0000 
     27 N          93.9650    2.1440  -10.1360 N.am      6 SEP2        0.0000 
     28 CA         89.3625    2.9815  -13.6575 C.3       4 GLC5        0.0000 
     29 CA         89.9760    0.9790  -13.3050 C.3      12 GLL5        0.0000 
     30 CA         88.7490    4.9840  -14.0100 C.3       8 GLP5        0.0000 
     31 CA         87.0080   -0.0855  -14.2200 C.3       4 GLC5        0.0000 
     32 CA         89.1870    0.0960  -14.2510 C.3      12 GLL5        0.0000 
     33 CA         84.8290   -0.2670  -14.1890 C.3       8 GLP5        0.0000 
     34 CA         90.1395    2.3475  -16.5760 C.3       4 GLC5        0.0000 
     35 CA         89.9030    0.3940  -15.5530 C.3      12 GLL5        0.0000 
     36 CA         90.3760    4.3010  -17.5990 C.3       8 GLP5        0.0000 
     37 CA         93.2980    1.1075  -14.6790 C.3       4 GLC5        0.0000 
     38 CA         91.3660    0.5730  -15.1240 C.3      12 GLL5        0.0000 
     39 CA         95.2300    1.6420  -14.2340 C.3       8 GLP5        0.0000 
     40 CA         96.2575   -2.1435  -17.3230 C.3       4 GLC5        0.0000 
     41 CA         94.4680   -2.6200  -17.4040 C.3      12 GLL5        0.0000 
     42 CA         98.0470   -1.6670  -17.2420 C.3       8 GLP5        0.0000 
     43 O          95.9565   -4.6415  -18.0725 O.2       1 ALC1        0.0000 
     44 O          94.8950   -3.9040  -17.5060 O.2       9 ALL1        0.0000 
     45 O          97.0180   -5.3790  -18.6390 O.2       5 ALP1        0.0000 
     46 N          96.2635   -1.6720  -18.8970 N.am      2 SEC2        0.0000 
     47 N          94.9830   -1.6380  -18.1940 N.am     10 SEL2        0.0000 
     48 N          97.5440   -1.7060  -19.6000 N.am      6 SEP2        0.0000 
     49 CA         93.0075   -0.7335  -18.9105 C.3       4 GLC5        0.0000 
     50 CA         94.5930   -0.3480  -18.1000 C.3      12 GLL5        0.0000 
     51 CA         91.4220   -1.1190  -19.7210 C.3       8 GLP5        0.0000 
     52 CA         94.9115    0.6470  -16.1670 C.3       4 GLC5        0.0000 
     53 CA         96.3200   -1.0075  -17.6710 C.3       4 GLC5        0.0000 
     54 CA         94.1270    0.4155  -15.3180 C.3       4 GLC5        0.0000 
     55 CA         93.0240   -0.8110  -16.4020 C.3      12 GLL5        0.0000 
     56 CA         91.7840    0.8233  -11.6985 C.3       4 GLC5        0.0000 
     57 CA         93.6610    0.8800  -10.8140 C.3       8 GLP5        0.0000 
     58 CA         88.6540   -1.0920  -16.0110 C.3       4 GLC5        0.0000 
     59 CA         87.7630   -2.4290  -17.1200 C.3       8 GLP5        0.0000 
     60 CA         92.4528   -1.3686  -18.1901 C.3       4 GLC5        0.0000 
     61 CA         93.4180   -2.2310  -16.4290 C.3      12 GLL5        0.0000 
@<TRIPOS>BOND
@<TRIPOS>SUBSTRUCTURE
     1 ALC1       43 GROUP        1 X    ALC  0     ROOT ALC X 1
     2 SEC2        1 GROUP        1 X    SEC  0     **** SEC X 2
     3 ZIC7        6 GROUP        1 X    ZIC  0     **** ZIC X 5
     4 GLC5       15 GROUP        1 X    GLC  0     **** GLC X 6
     5 ALP1       45 GROUP        1 Y    ALP  0     ROOT ALP Y 8
     6 SEP2        3 GROUP        1 Y    SEP  0     **** SEP Y 9
     7 ZIP7        8 GROUP        1 Y    ZIP  0     **** ZIP Y 12
     8 GLP5       17 GROUP        1 Y    GLP  0     **** GLP Y 13
     9 ALL1       44 GROUP        1 Z    ALL  0     ROOT ALL Z 15
    10 SEL2        2 GROUP        1 Z    SEL  0     **** SEL Z 16
    11 ZIL7        7 GROUP        1 Z    ZIL  0     **** ZIL Z 19
    12 GLL5       16 GROUP        1 Z    GLL  0     **** GLL Z 20
@<TRIPOS>SET

