#    Name: 3vth_AP2_2_ligand
#    Modification time : Tue Mar 25 01:35:44 2014

@<TRIPOS>MOLECULE
3vth_AP2_2_ligand
   41    43     1     0     0
SMALL
NO_CHARGES


@<TRIPOS>ATOM
      1 PB         87.9560    3.8040   -9.7200 P.3       1 AP2806      0.0000 
      2 O1B        88.2820    3.9430  -11.1860 O.co2     1 AP2806      0.0000 
      3 O2B        88.8040    4.5910   -8.7690 O.co2     1 AP2806      0.0000 
      4 O3B        86.4720    3.8830   -9.4630 O.co2     1 AP2806      0.0000 
      5 C3A        88.3550    2.0650   -9.3990 C.3       1 AP2806      0.0000 
      6 PA         90.1180    1.6430   -9.5130 P.3       1 AP2806      0.0000 
      7 O1A        90.1070    0.2280   -8.9520 O.co2     1 AP2806      0.0000 
      8 O2A        91.0840    2.6580   -8.9520 O.co2     1 AP2806      0.0000 
      9 O5'        90.4240    1.6050  -11.1020 O.3       1 AP2806      0.0000 
     10 C5'        89.8380    0.5540  -11.8610 C.3       1 AP2806      0.0000 
     11 C4'        89.9760    0.9790  -13.3050 C.3       1 AP2806      0.0000 
     12 O4'        91.3370    0.8420  -13.7160 O.3       1 AP2806      0.0000 
     13 C3'        89.1870    0.0960  -14.2510 C.3       1 AP2806      0.0000 
     14 O3'        87.8020    0.4570  -14.2490 O.3       1 AP2806      0.0000 
     15 C2'        89.9030    0.3940  -15.5530 C.3       1 AP2806      0.0000 
     16 O2'        89.3570    1.6200  -16.0540 O.3       1 AP2806      0.0000 
     17 C1'        91.3660    0.5730  -15.1240 C.3       1 AP2806      0.0000 
     18 N9         92.0780   -0.6950  -15.4550 N.pl3     1 AP2806      0.0000 
     19 C8         91.8660   -1.9280  -14.9310 C.2       1 AP2806      0.0000 
     20 N7         92.6650   -2.8650  -15.5090 N.2       1 AP2806      0.0000 
     21 C5         93.4180   -2.2310  -16.4290 C.ar      1 AP2806      0.0000 
     22 C6         94.4680   -2.6200  -17.4040 C.ar      1 AP2806      0.0000 
     23 N6         94.8950   -3.9040  -17.5060 N.pl3     1 AP2806      0.0000 
     24 N1         94.9830   -1.6380  -18.1940 N.ar      1 AP2806      0.0000 
     25 C2         94.5930   -0.3480  -18.1000 C.ar      1 AP2806      0.0000 
     26 N3         93.6340    0.0690  -17.2450 N.ar      1 AP2806      0.0000 
     27 C4         93.0240   -0.8110  -16.4020 C.ar      1 AP2806      0.0000 
     28 H          87.8630    1.5008  -10.1345 H         1 AP2806      0.0000 
     29 H          88.0614    1.8643   -8.4116 H         1 AP2806      0.0000 
     30 H          88.7875    0.4293  -11.6398 H         1 AP2806      0.0000 
     31 H          90.3598   -0.3832  -11.7286 H         1 AP2806      0.0000 
     32 H          89.6458    1.9889  -13.4229 H         1 AP2806      0.0000 
     33 H          89.3805   -0.9113  -13.9853 H         1 AP2806      0.0000 
     34 H          89.8150   -0.4152  -16.1908 H         1 AP2806      0.0000 
     35 H          91.7650    1.3834  -15.6821 H         1 AP2806      0.0000 
     36 H          91.2148   -2.1230  -14.2201 H         1 AP2806      0.0000 
     37 H          95.6145   -4.0763  -18.1788 H         1 AP2806      0.0000 
     38 H          94.4524   -4.5644  -16.8993 H         1 AP2806      0.0000 
     39 H          95.0613    0.3702  -18.7262 H         1 AP2806      0.0000 
     40 H          87.6833    1.0318  -15.0587 H         1 AP2806      0.0000 
     41 H          89.2063    1.4567  -17.0290 H         1 AP2806      0.0000 
@<TRIPOS>BOND
     1    2    1 ar   
     2    3    1 ar   
     3    4    1 ar   
     4    5    1 1    
     5    6    5 1    
     6   28    5 1    
     7   29    5 1    
     8    7    6 ar   
     9    8    6 ar   
    10    9    6 1    
    11   10    9 1    
    12   11   10 1    
    13   30   10 1    
    14   31   10 1    
    15   12   11 1    
    16   13   11 1    
    17   32   11 1    
    18   17   12 1    
    19   14   13 1    
    20   15   13 1    
    21   33   13 1    
    22   40   14 1    
    23   16   15 1    
    24   17   15 1    
    25   34   15 1    
    26   41   16 1    
    27   18   17 1    
    28   35   17 1    
    29   19   18 1    
    30   27   18 1    
    31   20   19 2    
    32   36   19 1    
    33   21   20 1    
    34   22   21 ar   
    35   27   21 ar   
    36   23   22 1    
    37   24   22 ar   
    38   37   23 1    
    39   38   23 1    
    40   25   24 ar   
    41   26   25 ar   
    42   39   25 1    
    43   27   26 ar   
@<TRIPOS>SUBSTRUCTURE
     1 AP2806      1 GROUP   
@<TRIPOS>SET

