#    Name: 3dv1_AR9_2_INTS_M
#    Modification time : Tue Mar 25 00:26:43 2014

@<TRIPOS>MOLECULE
3dv1_AR9_2_INTS_M
   98     0     9     0     0
SMALL
NO_CHARGES


@<TRIPOS>ATOM
      1 O          18.2435    6.3220  -18.0000 O.2       1 ALC1        0.0000 
      2 O          17.1850    6.2930  -19.0740 O.2       7 ALL1        0.0000 
      3 O          19.3020    6.3510  -16.9260 O.2       4 ALP1        0.0000 
      4 CA         14.4940    7.3520  -19.9825 C.3       3 GLC5        0.0000 
      5 CA         16.1550    7.2960  -18.9040 C.3       9 GLL5        0.0000 
      6 CA         12.8330    7.4080  -21.0610 C.3       6 GLP5        0.0000 
      7 CA         14.3240    8.3935  -18.4950 C.3       3 GLC5        0.0000 
      8 CA         15.7900    7.3230  -17.3980 C.3       9 GLL5        0.0000 
      9 CA         12.8580    9.4640  -19.5920 C.3       6 GLP5        0.0000 
     10 CA         14.6845    8.6040  -16.0335 C.3       3 GLC5        0.0000 
     11 CA         13.5790    9.8850  -14.6690 C.3       6 GLP5        0.0000 
     12 CA         12.8510    6.3460  -15.3820 C.3       3 GLC5        0.0000 
     13 CA         14.9630    5.8360  -15.4950 C.3       9 GLL5        0.0000 
     14 CA         10.7390    6.8560  -15.2690 C.3       6 GLP5        0.0000 
     15 CA         13.8865    5.0475  -13.7635 C.3       3 GLC5        0.0000 
     16 CA         12.8100    4.2590  -12.0320 C.3       6 GLP5        0.0000 
     17 CA         14.2710    7.8605  -15.0820 C.3       3 GLC5        0.0000 
     18 CA         18.4805    1.9750  -12.9490 C.3       3 GLC5        0.0000 
     19 CA         17.7300    3.3550  -14.2860 C.3       9 GLL5        0.0000 
     20 CA         19.2310    0.5950  -11.6120 C.3       6 GLP5        0.0000 
     21 CA         18.8910    3.8235  -12.7495 C.3       3 GLC5        0.0000 
     22 CA         20.0520    4.2920  -11.2130 C.3       6 GLP5        0.0000 
     23 CA         16.7995    1.0990  -14.8450 C.3       3 GLC5        0.0000 
     24 CA         18.0880    2.0350  -16.3330 C.3       9 GLL5        0.0000 
     25 CA         15.5110    0.1630  -13.3570 C.3       6 GLP5        0.0000 
     26 CA         21.1545    1.6805  -17.3140 C.3       3 GLC5        0.0000 
     27 CA         18.9700    1.6480  -17.5100 C.3       9 GLL5        0.0000 
     28 CA         23.3390    1.7130  -17.1180 C.3       6 GLP5        0.0000 
     29 CA         19.8990    5.2095  -19.2110 C.3       3 GLC5        0.0000 
     30 CA         18.1820    4.3460  -20.0900 C.3       9 GLL5        0.0000 
     31 CA         21.6160    6.0730  -18.3320 C.3       6 GLP5        0.0000 
     32 N          15.1730    4.6865  -21.8320 N.am      2 SEC2        0.0000 
     33 N          16.1130    5.2920  -20.8350 N.am      8 SEL2        0.0000 
     34 N          14.2330    4.0810  -22.8290 N.am      5 SEP2        0.0000 
     35 CA         17.3585    4.6315  -22.8070 C.3       3 GLC5        0.0000 
     36 CA         18.1940    3.5660  -21.4280 C.3       9 GLL5        0.0000 
     37 CA         16.5230    5.6970  -24.1860 C.3       6 GLP5        0.0000 
     38 CA         16.4300    2.6950  -21.6720 C.3       3 GLC5        0.0000 
     39 CA         14.6660    1.8240  -21.9160 C.3       6 GLP5        0.0000 
     40 N          21.5085    3.4810  -18.3905 N.am      2 SEC2        0.0000 
     41 N          20.2760    2.9730  -18.9240 N.am      8 SEL2        0.0000 
     42 N          22.7410    3.9890  -17.8570 N.am      5 SEP2        0.0000 
     43 CA         12.9400    7.1650  -18.7915 C.3       3 GLC5        0.0000 
     44 CA         13.6350    6.0570  -17.6120 C.3       9 GLL5        0.0000 
     45 CA         12.2450    8.2730  -19.9710 C.3       6 GLP5        0.0000 
     46 CA         11.9705    5.8825  -16.7620 C.3       3 GLC5        0.0000 
     47 CA         10.3060    5.7080  -15.9120 C.3       6 GLP5        0.0000 
     48 CA         14.7480    9.0720  -19.4970 C.3       3 GLC5        0.0000 
     49 CA         16.6380    8.6800  -19.4020 C.3       9 GLL5        0.0000 
     50 N          18.8955    9.3640  -19.1990 N.am      2 SEC2        0.0000 
     51 N          17.7640    9.1150  -18.6120 N.am      8 SEL2        0.0000 
     52 N          20.0270    9.6130  -19.7860 N.am      5 SEP2        0.0000 
     53 O          17.8290    9.7220  -17.5215 O.2       1 ALC1        0.0000 
     54 O          17.7640    9.1150  -18.6120 O.2       7 ALL1        0.0000 
     55 O          17.8940   10.3290  -16.4310 O.2       4 ALP1        0.0000 
     56 O          16.9355   10.3065  -17.7690 O.2       1 ALC1        0.0000 
     57 O          16.1070   11.4980  -16.9260 O.2       4 ALP1        0.0000 
     58 CA         14.9650    8.0090  -20.9720 C.3       3 GLC5        0.0000 
     59 CA         17.0970    8.6100  -20.8830 C.3       9 GLL5        0.0000 
     60 CA         16.8100    7.1535  -22.5345 C.3       3 GLC5        0.0000 
     61 CA         17.9330   11.7130  -20.3315 C.3       3 GLC5        0.0000 
     62 CA         17.0850   10.0350  -21.4690 C.3       9 GLL5        0.0000 
     63 CA         18.7810   13.3910  -19.1940 C.3       6 GLP5        0.0000 
     64 CA         19.6400   11.3280  -23.0450 C.3       3 GLC5        0.0000 
     65 CA         18.1110   10.1340  -22.6260 C.3       9 GLL5        0.0000 
     66 CA         21.1690   12.5220  -23.4640 C.3       6 GLP5        0.0000 
     67 N          14.7530    8.0630  -23.1270 N.am      2 SEC2        0.0000 
     68 N          15.1430    9.4190  -22.7030 N.am      8 SEL2        0.0000 
     69 N          14.3630    6.7070  -23.5510 N.am      5 SEP2        0.0000 
     70 O          16.0900   12.5915  -21.3480 O.2       1 ALC1        0.0000 
     71 O          15.3160   11.5810  -22.0600 O.2       7 ALL1        0.0000 
     72 O          16.8640   13.6020  -20.6360 O.2       4 ALP1        0.0000 
     73 CA         13.4595   10.7160  -21.1470 C.3       3 GLC5        0.0000 
     74 CA         14.0610   11.9680  -22.7020 C.3       9 GLL5        0.0000 
     75 CA         14.0580   13.5145  -20.4350 C.3       3 GLC5        0.0000 
     76 CA         13.8580   13.4700  -22.4290 C.3       9 GLL5        0.0000 
     77 CA         14.2580   13.5590  -18.4410 C.3       6 GLP5        0.0000 
     78 CA         14.8720   15.4000  -22.1850 C.3       3 GLC5        0.0000 
     79 CA         15.8860   17.3300  -21.9410 C.3       6 GLP5        0.0000 
     80 CA         13.3130   16.1530  -23.2880 C.3       3 GLC5        0.0000 
     81 CA         12.6730   14.0590  -23.2420 C.3       9 GLL5        0.0000 
     82 CA         13.9530   18.2470  -23.3340 C.3       6 GLP5        0.0000 
     83 CA         10.2850   12.6265  -21.4080 C.3       3 GLC5        0.0000 
     84 CA         11.3170   13.5270  -22.7300 C.3       9 GLL5        0.0000 
     85 CA          9.2530   11.7260  -20.0860 C.3       6 GLP5        0.0000 
     86 CA          9.3125   14.4755  -22.6615 C.3       3 GLC5        0.0000 
     87 CA          7.3080   15.4240  -22.5930 C.3       6 GLP5        0.0000 
     88 CA         16.1602    6.9097  -13.9360 C.3       3 GLC5        0.0000 
     89 CA         16.6790    8.2030  -12.6720 C.3       6 GLP5        0.0000 
     90 CA         15.1593    4.1325  -13.2732 C.3       3 GLC5        0.0000 
     91 CA         16.3200    5.3970  -14.9050 C.3       9 GLL5        0.0000 
     92 CA         13.9660    3.6370  -11.6510 C.3       6 GLP5        0.0000 
     93 CA         17.0502    4.8535  -12.9725 C.3       3 GLC5        0.0000 
     94 CA         16.3850    3.8590  -14.8860 C.3       9 GLL5        0.0000 
     95 CA         17.0430    6.1000  -11.3590 C.3       6 GLP5        0.0000 
     96 CA         16.2843    1.8850  -13.9715 C.3       3 GLC5        0.0000 
     97 CA         15.6797   13.5690  -23.2078 C.3       3 GLC5        0.0000 
     98 CA         17.4000   14.4190  -23.8500 C.3       6 GLP5        0.0000 
@<TRIPOS>BOND
@<TRIPOS>SUBSTRUCTURE
     1 ALC1        1 GROUP        1 X    ALC  0     ROOT ALC X 1
     2 SEC2       32 GROUP        1 X    SEC  0     **** SEC X 2
     3 GLC5        4 GROUP        1 X    GLC  0     **** GLC X 6
     4 ALP1        3 GROUP        1 Y    ALP  0     ROOT ALP Y 8
     5 SEP2       34 GROUP        1 Y    SEP  0     **** SEP Y 9
     6 GLP5        6 GROUP        1 Y    GLP  0     **** GLP Y 13
     7 ALL1        2 GROUP        1 Z    ALL  0     ROOT ALL Z 15
     8 SEL2       33 GROUP        1 Z    SEL  0     **** SEL Z 16
     9 GLL5        5 GROUP        1 Z    GLL  0     **** GLL Z 20
@<TRIPOS>SET

