#    Name: 3dv1_AR9_2_ligand
#    Modification time : Tue Mar 25 00:26:43 2014

@<TRIPOS>MOLECULE
3dv1_AR9_2_ligand
   76    76     1     0     0
SMALL
NO_CHARGES


@<TRIPOS>ATOM
      1 N1         17.1850    6.2930  -19.0740 N.am      1 AR9501      0.0000 
      2 C3         16.1550    7.2960  -18.9040 C.3       1 AR9501      0.0000 
      3 C5         15.7900    7.3230  -17.3980 C.3       1 AR9501      0.0000 
      4 C8         15.0630    6.0010  -17.0310 C.3       1 AR9501      0.0000 
      5 C10        14.9630    5.8360  -15.4950 C.3       1 AR9501      0.0000 
      6 C13        16.3200    5.3970  -14.9050 C.3       1 AR9501      0.0000 
      7 C16        16.3850    3.8590  -14.8860 C.3       1 AR9501      0.0000 
      8 C19        17.7300    3.3550  -14.2860 C.3       1 AR9501      0.0000 
      9 C22        18.7500    3.0590  -15.4100 C.3       1 AR9501      0.0000 
     10 C25        18.0880    2.0350  -16.3330 C.3       1 AR9501      0.0000 
     11 C28        18.9700    1.6480  -17.5100 C.3       1 AR9501      0.0000 
     12 C31        19.1380    2.7210  -18.5430 C.2       1 AR9501      0.0000 
     13 N32        18.0210    3.3520  -19.0100 N.am      1 AR9501      0.0000 
     14 C34        18.1820    4.3460  -20.0900 C.3       1 AR9501      0.0000 
     15 C36        17.0550    5.3490  -20.0450 C.2       1 AR9501      0.0000 
     16 O37        16.1130    5.2920  -20.8350 O.2       1 AR9501      0.0000 
     17 C38        18.1940    3.5660  -21.4280 C.3       1 AR9501      0.0000 
     18 O42        20.2760    2.9730  -18.9240 O.2       1 AR9501      0.0000 
     19 C43        13.6350    6.0570  -17.6120 C.3       1 AR9501      0.0000 
     20 C47        16.6380    8.6800  -19.4020 C.3       1 AR9501      0.0000 
     21 O49        17.7640    9.1150  -18.6120 O.3       1 AR9501      0.0000 
     22 C51        17.0970    8.6100  -20.8830 C.3       1 AR9501      0.0000 
     23 C54        17.0850   10.0350  -21.4690 C.3       1 AR9501      0.0000 
     24 C56        18.1110   10.1340  -22.6260 C.3       1 AR9501      0.0000 
     25 C60        15.7510   10.3170  -22.1390 C.2       1 AR9501      0.0000 
     26 O61        15.1430    9.4190  -22.7030 O.2       1 AR9501      0.0000 
     27 N62        15.3160   11.5810  -22.0600 N.am      1 AR9501      0.0000 
     28 C64        14.0610   11.9680  -22.7020 C.3       1 AR9501      0.0000 
     29 C67        13.8580   13.4700  -22.4290 C.3       1 AR9501      0.0000 
     30 C70        12.6730   14.0590  -23.2420 C.3       1 AR9501      0.0000 
     31 C73        11.3170   13.5270  -22.7300 C.3       1 AR9501      0.0000 
     32 H          17.9923    6.3272  -18.4468 H         1 AR9501      0.0000 
     33 H          15.2666    7.0232  -19.4494 H         1 AR9501      0.0000 
     34 H          15.1327    8.1528  -17.2064 H         1 AR9501      0.0000 
     35 H          16.6906    7.4045  -16.8154 H         1 AR9501      0.0000 
     36 H          15.5796    5.1821  -17.4488 H         1 AR9501      0.0000 
     37 H          14.2152    5.0847  -15.2679 H         1 AR9501      0.0000 
     38 H          14.6724    6.7835  -15.0556 H         1 AR9501      0.0000 
     39 H          16.4073    5.7715  -13.8978 H         1 AR9501      0.0000 
     40 H          17.1165    5.7814  -15.5216 H         1 AR9501      0.0000 
     41 H          16.2929    3.4814  -15.9009 H         1 AR9501      0.0000 
     42 H          15.5677    3.4708  -14.2841 H         1 AR9501      0.0000 
     43 H          17.5450    2.4490  -13.7230 H         1 AR9501      0.0000 
     44 H          18.1302    4.1191  -13.6319 H         1 AR9501      0.0000 
     45 H          19.6350    2.6429  -14.9807 H         1 AR9501      0.0000 
     46 H          18.9496    3.9590  -15.9493 H         1 AR9501      0.0000 
     47 H          17.1452    2.4523  -16.7092 H         1 AR9501      0.0000 
     48 H          17.8457    1.1362  -15.7515 H         1 AR9501      0.0000 
     49 H          18.5442    0.7415  -17.9865 H         1 AR9501      0.0000 
     50 H          19.9657    1.3513  -17.1218 H         1 AR9501      0.0000 
     51 H          17.0922    3.1808  -18.6625 H         1 AR9501      0.0000 
     52 H          19.1238    4.8451  -19.9891 H         1 AR9501      0.0000 
     53 H          15.8264    9.3726  -19.3367 H         1 AR9501      0.0000 
     54 H          16.4136    7.9889  -21.4339 H         1 AR9501      0.0000 
     55 H          18.0955    8.2131  -20.9232 H         1 AR9501      0.0000 
     56 H          17.2967   10.7507  -20.7514 H         1 AR9501      0.0000 
     57 H          15.8256   12.3204  -21.5601 H         1 AR9501      0.0000 
     58 H          13.2223   11.4320  -22.2835 H         1 AR9501      0.0000 
     59 H          14.1032   11.8214  -23.7709 H         1 AR9501      0.0000 
     60 H          14.7675   14.0097  -22.6951 H         1 AR9501      0.0000 
     61 H          13.6618   13.6188  -21.3667 H         1 AR9501      0.0000 
     62 H          12.7933   13.7850  -24.2869 H         1 AR9501      0.0000 
     63 H          12.6893   15.1421  -23.1522 H         1 AR9501      0.0000 
     64 H          18.2988    4.1766  -22.2129 H         1 AR9501      0.0000 
     65 H          18.9451    2.9070  -21.4670 H         1 AR9501      0.0000 
     66 H          17.3467    3.0533  -21.5666 H         1 AR9501      0.0000 
     67 H          13.6425    6.1537  -18.6073 H         1 AR9501      0.0000 
     68 H          13.1158    5.2286  -17.4019 H         1 AR9501      0.0000 
     69 H          13.1153    6.8292  -17.2464 H         1 AR9501      0.0000 
     70 H          19.0403    9.9323  -22.3166 H         1 AR9501      0.0000 
     71 H          17.9019    9.4921  -23.3638 H         1 AR9501      0.0000 
     72 H          18.1285   11.0488  -23.0296 H         1 AR9501      0.0000 
     73 H          11.2595   12.5309  -22.7972 H         1 AR9501      0.0000 
     74 H          11.1626   13.7655  -21.7712 H         1 AR9501      0.0000 
     75 H          10.5504   13.9007  -23.2521 H         1 AR9501      0.0000 
     76 H          17.3647    9.6348  -17.8567 H         1 AR9501      0.0000 
@<TRIPOS>BOND
     1    2    1 1    
     2   15    1 am   
     3   32    1 1    
     4    3    2 1    
     5   20    2 1    
     6   33    2 1    
     7    4    3 1    
     8   34    3 1    
     9   35    3 1    
    10    5    4 1    
    11   19    4 1    
    12   36    4 1    
    13    6    5 1    
    14   37    5 1    
    15   38    5 1    
    16    7    6 1    
    17   39    6 1    
    18   40    6 1    
    19    8    7 1    
    20   41    7 1    
    21   42    7 1    
    22    9    8 1    
    23   43    8 1    
    24   44    8 1    
    25   10    9 1    
    26   45    9 1    
    27   46    9 1    
    28   11   10 1    
    29   47   10 1    
    30   48   10 1    
    31   12   11 1    
    32   49   11 1    
    33   50   11 1    
    34   13   12 am   
    35   18   12 2    
    36   14   13 1    
    37   51   13 1    
    38   15   14 1    
    39   17   14 1    
    40   52   14 1    
    41   16   15 2    
    42   64   17 1    
    43   65   17 1    
    44   66   17 1    
    45   67   19 1    
    46   68   19 1    
    47   69   19 1    
    48   21   20 1    
    49   22   20 1    
    50   53   20 1    
    51   76   21 1    
    52   23   22 1    
    53   54   22 1    
    54   55   22 1    
    55   24   23 1    
    56   25   23 1    
    57   56   23 1    
    58   70   24 1    
    59   71   24 1    
    60   72   24 1    
    61   26   25 2    
    62   27   25 am   
    63   28   27 1    
    64   57   27 1    
    65   29   28 1    
    66   58   28 1    
    67   59   28 1    
    68   30   29 1    
    69   60   29 1    
    70   61   29 1    
    71   31   30 1    
    72   62   30 1    
    73   63   30 1    
    74   73   31 1    
    75   74   31 1    
    76   75   31 1    
@<TRIPOS>SUBSTRUCTURE
     1 AR9501      1 GROUP   
@<TRIPOS>SET

