#    Name: 4F79_1_CAVITY_N1_6.mol2
#    Modification time : Mon Mar 10 18:50:17 2014

@<TRIPOS>MOLECULE
4F79_1_CAVITY_N1_6.mol2
  143     0     7     0     0
SMALL
NO_CHARGES


@<TRIPOS>ATOM
      1 OD1        41.4106    5.5584    8.6746 O.3       3 ASP3        0.0000 
      2 O          40.7787    6.8085    8.1379 O.2       2 ALA2        0.0000 
      3 CA         41.7629    5.1372    7.2787 C.3       6 GLY6        0.0000 
      4 O          41.1310    6.3873    6.7420 O.2       2 ALA2        0.0000 
      5 O          40.4991    7.6374    6.2054 O.2       2 ALA2        0.0000 
      6 CA         42.1152    4.7161    5.8828 C.3       6 GLY6        0.0000 
      7 OD1        40.0966    4.8443    8.5584 O.3       3 ASP3        0.0000 
      8 CZ         39.4647    6.0944    8.0217 C.ar      5 PHE5        0.0000 
      9 CA         40.4489    4.4232    7.1625 C.3       6 GLY6        0.0000 
     10 CZ         39.8170    5.6733    6.6258 C.ar      5 PHE5        0.0000 
     11 O          39.1851    6.9234    6.0892 O.2       2 ALA2        0.0000 
     12 O          38.5532    8.1735    5.5526 O.2       2 ALA2        0.0000 
     13 O          37.9213    9.4236    5.0159 O.2       2 ALA2        0.0000 
     14 CA         40.8012    4.0020    5.7666 C.3       6 GLY6        0.0000 
     15 DU         40.1693    5.2521    5.2299 H         7 CUB7        0.0000 
     16 DU         39.5374    6.5022    4.6933 H         7 CUB7        0.0000 
     17 DU         38.9055    7.7523    4.1567 H         7 CUB7        0.0000 
     18 N          41.1535    3.5809    4.3707 N.2       2 ALA2        0.0000 
     19 DU         40.5216    4.8310    3.8340 H         7 CUB7        0.0000 
     20 DU         39.8897    6.0811    3.2974 H         7 CUB7        0.0000 
     21 CZ         38.7826    4.1302    8.4422 C.ar      5 PHE5        0.0000 
     22 CZ         38.5030    4.9592    6.5096 C.ar      5 PHE5        0.0000 
     23 CZ         37.8711    6.2093    5.9730 C.ar      5 PHE5        0.0000 
     24 O          37.2392    7.4594    5.4363 O.2       2 ALA2        0.0000 
     25 O          36.6073    8.7095    4.8997 O.2       2 ALA2        0.0000 
     26 CZ         35.9755    9.9596    4.3631 C.ar      5 PHE5        0.0000 
     27 CA         38.8553    4.5381    5.1137 C.3       6 GLY6        0.0000 
     28 DU         38.2234    5.7882    4.5771 H         7 CUB7        0.0000 
     29 DU         37.5915    7.0382    4.0405 H         7 CUB7        0.0000 
     30 DU         39.2076    4.1169    3.7178 H         7 CUB7        0.0000 
     31 DU         38.5757    5.3670    3.1812 H         7 CUB7        0.0000 
     32 DU         37.9439    6.6171    2.6446 H         7 CUB7        0.0000 
     33 DU         39.5599    3.6958    2.3219 H         7 CUB7        0.0000 
     34 NZ         38.9281    4.9459    1.7853 N.2       4 LYS4        0.0000 
     35 OG         37.3958    3.0084   11.6544 O.2       1 SER1        0.0000 
     36 CZ         36.7639    4.2585   11.1177 C.ar      5 PHE5        0.0000 
     37 O          37.7481    2.5872   10.2585 O.2       2 ALA2        0.0000 
     38 CZ         37.1162    3.8373    9.7218 C.ar      5 PHE5        0.0000 
     39 O          37.4686    3.4162    8.3259 O.2       2 ALA2        0.0000 
     40 CZ         35.5729    7.1665    6.7160 C.ar      5 PHE5        0.0000 
     41 CA         37.8209    2.9950    6.9301 C.3       6 GLY6        0.0000 
     42 CZ         37.1890    4.2451    6.3934 C.ar      5 PHE5        0.0000 
     43 CZ         36.5571    5.4952    5.8568 C.ar      5 PHE5        0.0000 
     44 CZ         35.9252    6.7453    5.3201 C.ar      5 PHE5        0.0000 
     45 CA         35.2933    7.9954    4.7835 C.3       6 GLY6        0.0000 
     46 CZ         34.6615    9.2455    4.2469 C.ar      5 PHE5        0.0000 
     47 CA         38.1732    2.5739    5.5342 C.3       6 GLY6        0.0000 
     48 DU         37.5413    3.8240    4.9975 H         7 CUB7        0.0000 
     49 DU         36.9094    5.0741    4.4609 H         7 CUB7        0.0000 
     50 DU         35.6457    7.5743    3.3876 H         7 CUB7        0.0000 
     51 CZ         35.0138    8.8244    2.8510 C.ar      5 PHE5        0.0000 
     52 CZ         38.5255    2.1527    4.1383 C.ar      5 PHE5        0.0000 
     53 CZ         37.8936    3.4028    3.6016 C.ar      5 PHE5        0.0000 
     54 DU         37.2617    4.6529    3.0650 H         7 CUB7        0.0000 
     55 NZ         35.9980    7.1531    1.9917 N.2       4 LYS4        0.0000 
     56 CA         38.2459    2.9817    2.2057 C.3       6 GLY6        0.0000 
     57 NZ         37.6141    4.2318    1.6691 N.2       4 LYS4        0.0000 
     58 NZ         36.9822    5.4819    1.1325 N.2       4 LYS4        0.0000 
     59 O          36.0818    2.2943   11.5382 O.2       2 ALA2        0.0000 
     60 CZ         35.4499    3.5444   11.0015 C.ar      5 PHE5        0.0000 
     61 CA         36.4341    1.8731   10.1423 C.3       6 GLY6        0.0000 
     62 CZ         35.8022    3.1232    9.6056 C.ar      5 PHE5        0.0000 
     63 O          36.1546    2.7021    8.2097 O.2       2 ALA2        0.0000 
     64 CZ         35.5227    3.9522    7.6731 C.ar      5 PHE5        0.0000 
     65 CZ         34.8908    5.2023    7.1365 C.ar      5 PHE5        0.0000 
     66 CA         34.2589    6.4524    6.5998 C.3       6 GLY6        0.0000 
     67 O          36.5069    2.2810    6.8138 O.2       2 ALA2        0.0000 
     68 DU         35.8750    3.5311    6.2772 H         7 CUB7        0.0000 
     69 DU         35.2431    4.7811    5.7406 H         7 CUB7        0.0000 
     70 DU         34.6112    6.0312    5.2039 H         7 CUB7        0.0000 
     71 CA         33.9793    7.2813    4.6673 C.3       6 GLY6        0.0000 
     72 CZ         33.3475    8.5314    4.1306 C.ar      5 PHE5        0.0000 
     73 CZ         36.8592    1.8598    5.4180 C.ar      5 PHE5        0.0000 
     74 CZ         36.2273    3.1099    4.8813 C.ar      5 PHE5        0.0000 
     75 DU         35.5954    4.3600    4.3447 H         7 CUB7        0.0000 
     76 NZ         34.3317    6.8602    3.2714 N.2       4 LYS4        0.0000 
     77 CZ         33.6998    8.1103    2.7348 C.ar      5 PHE5        0.0000 
     78 CZ         36.5796    2.6888    3.4854 C.ar      5 PHE5        0.0000 
     79 DU         35.9477    3.9389    2.9488 H         7 CUB7        0.0000 
     80 DU         35.3159    5.1890    2.4121 H         7 CUB7        0.0000 
     81 NZ         34.6840    6.4391    1.8755 N.2       4 LYS4        0.0000 
     82 CZ         36.9319    2.2676    2.0895 C.ar      5 PHE5        0.0000 
     83 CZ         36.3001    3.5177    1.5529 C.ar      5 PHE5        0.0000 
     84 O          35.6682    4.7678    1.0162 O.2       2 ALA2        0.0000 
     85 O          34.7678    1.5802   11.4219 O.2       2 ALA2        0.0000 
     86 OG         34.1359    2.8303   10.8853 O.2       1 SER1        0.0000 
     87 CZ         33.5040    4.0804   10.3487 C.ar      5 PHE5        0.0000 
     88 CA         35.1201    1.1591   10.0261 C.3       6 GLY6        0.0000 
     89 DU         34.4883    2.4092    9.4894 H         7 CUB7        0.0000 
     90 CZ         33.8564    3.6593    8.9528 C.ar      5 PHE5        0.0000 
     91 CZ         33.2245    4.9094    8.4161 C.ar      5 PHE5        0.0000 
     92 CA         32.5926    6.1595    7.8795 C.3       6 GLY6        0.0000 
     93 CA         31.9607    7.4095    7.3429 C.3       6 GLY6        0.0000 
     94 CA         34.8406    1.9880    8.0935 C.3       6 GLY6        0.0000 
     95 DU         34.2087    3.2381    7.5569 H         7 CUB7        0.0000 
     96 DU         33.5768    4.4882    7.0202 H         7 CUB7        0.0000 
     97 CA         32.9449    5.7383    6.4836 C.3       6 GLY6        0.0000 
     98 CA         32.3130    6.9884    5.9470 C.3       6 GLY6        0.0000 
     99 CZ         35.1929    1.5669    6.6976 C.ar      5 PHE5        0.0000 
    100 DU         34.5610    2.8170    6.1610 H         7 CUB7        0.0000 
    101 DU         33.9291    4.0671    5.6244 H         7 CUB7        0.0000 
    102 DU         33.2972    5.3172    5.0877 H         7 CUB7        0.0000 
    103 CA         32.6653    6.5673    4.5511 C.3       6 GLY6        0.0000 
    104 CA         32.0335    7.8174    4.0144 C.3       6 GLY6        0.0000 
    105 CZ         34.9133    2.3958    4.7651 C.ar      5 PHE5        0.0000 
    106 DU         34.2814    3.6459    4.2285 H         7 CUB7        0.0000 
    107 N          33.6495    4.8960    3.6918 N.2       2 ALA2        0.0000 
    108 O          33.0177    6.1461    3.1552 O.2       2 ALA2        0.0000 
    109 CZ         35.2656    1.9747    3.3692 C.ar      5 PHE5        0.0000 
    110 DU         34.6337    3.2248    2.8326 H         7 CUB7        0.0000 
    111 DU         34.0019    4.4749    2.2959 H         7 CUB7        0.0000 
    112 NZ         33.3700    5.7250    1.7593 N.2       4 LYS4        0.0000 
    113 CA         34.9861    2.8036    1.4367 C.3       6 GLY6        0.0000 
    114 CZ         33.4538    0.8661   11.3057 C.ar      5 PHE5        0.0000 
    115 OG         32.8219    2.1162   10.7691 O.2       1 SER1        0.0000 
    116 CA         34.4380   -0.8051   10.4465 C.3       6 GLY6        0.0000 
    117 CA         33.8061    0.4450    9.9098 C.3       6 GLY6        0.0000 
    118 NZ         33.1743    1.6951    9.3732 N.2       4 LYS4        0.0000 
    119 NZ         32.5424    2.9452    8.8366 N.2       4 LYS4        0.0000 
    120 NZ         31.9105    4.1953    8.2999 N.2       4 LYS4        0.0000 
    121 CZ         31.2786    5.4454    7.7633 C.ar      5 PHE5        0.0000 
    122 CA         30.6467    6.6955    7.2266 C.3       6 GLY6        0.0000 
    123 CA         34.1585    0.0239    8.5140 C.3       6 GLY6        0.0000 
    124 NZ         33.5266    1.2740    7.9773 N.2       4 LYS4        0.0000 
    125 NZ         32.8947    2.5240    7.4407 N.2       4 LYS4        0.0000 
    126 NZ         32.2628    3.7741    6.9040 N.2       4 LYS4        0.0000 
    127 NZ         31.6309    5.0242    6.3674 N.2       4 LYS4        0.0000 
    128 CA         30.9990    6.2743    5.8308 C.3       6 GLY6        0.0000 
    129 CZ         33.8789    0.8528    6.5814 C.ar      5 PHE5        0.0000 
    130 NZ         33.2470    2.1029    6.0448 N.2       4 LYS4        0.0000 
    131 O          32.6151    3.3530    5.5081 O.2       2 ALA2        0.0000 
    132 N          31.9832    4.6031    4.9715 N.2       2 ALA2        0.0000 
    133 O          31.3513    5.8532    4.4349 O.2       2 ALA2        0.0000 
    134 CZ         34.2312    0.4317    5.1855 C.ar      5 PHE5        0.0000 
    135 O          33.5993    1.6818    4.6489 O.2       2 ALA2        0.0000 
    136 O          32.9674    2.9319    4.1123 O.2       2 ALA2        0.0000 
    137 O          33.9516    1.2606    3.2530 O.2       2 ALA2        0.0000 
    138 CA         33.3197    2.5107    2.7164 C.3       6 GLY6        0.0000 
    139 N          32.6879    3.7608    2.1797 N.2       2 ALA2        0.0000 
    140 O          32.1398    0.1521   11.1895 O.2       2 ALA2        0.0000 
    141 N          32.4921   -0.2691    9.7936 N.2       2 ALA2        0.0000 
    142 NZ         31.8603    0.9810    9.2570 N.2       4 LYS4        0.0000 
    143 CA         30.3169    4.3102    6.2512 C.3       6 GLY6        0.0000 
@<TRIPOS>BOND
@<TRIPOS>SUBSTRUCTURE
     1 SER1       35 GROUP   
     2 ALA2        2 GROUP   
     3 ASP3        1 GROUP   
     4 LYS4       34 GROUP   
     5 PHE5        8 GROUP   
     6 GLY6        3 GROUP   
     7 CUB7       15 GROUP   
@<TRIPOS>SET

