#    Name: 4f79_P53_1_INTS_M
#    Modification time : Mon Mar 24 19:01:30 2014

@<TRIPOS>MOLECULE
4f79_P53_1_INTS_M
   63     0    12     0     0
SMALL
NO_CHARGES


@<TRIPOS>ATOM
      1 CA         38.0230    2.1220    7.1995 C.3       4 GLC5        0.0000 
      2 CA         35.9130    2.8230    7.2330 C.3      12 GLL5        0.0000 
      3 CA         40.1330    1.4210    7.1660 C.3       8 GLP5        0.0000 
      4 CA         31.7275    5.8675    9.2110 C.3       4 GLC5        0.0000 
      5 CA         32.4020    5.2720    7.5390 C.3      12 GLL5        0.0000 
      6 CA         31.0530    6.4630   10.8830 C.3       8 GLP5        0.0000 
      7 CA         33.0070    7.2830    7.4935 C.3       4 GLC5        0.0000 
      8 CA         33.6120    9.2940    7.4480 C.3       8 GLP5        0.0000 
      9 CA         34.2470    5.7350    8.6070 C.3       4 GLC5        0.0000 
     10 CA         36.0920    6.1980    9.6750 C.3       8 GLP5        0.0000 
     11 N          31.4915    1.9190    7.6875 N.am      2 SEC2        0.0000 
     12 N          32.4050    2.5920    8.5200 N.am     10 SEL2        0.0000 
     13 N          30.5780    1.2460    6.8550 N.am      6 SEP2        0.0000 
     14 CA         31.6790    3.5285   10.5015 C.3       4 GLC5        0.0000 
     15 CA         32.4020    1.9000    9.6850 C.3      12 GLL5        0.0000 
     16 CA         30.9560    5.1570   11.3180 C.3       8 GLP5        0.0000 
     17 NZ         38.5545    5.2020   11.4445 N.4       3 LYC4        0.0000 
     18 NZ         37.7290    4.1280   11.8800 N.4      11 LYL4        0.0000 
     19 NZ         39.3800    6.2760   11.0090 N.4       7 LYP4        0.0000 
     20 N          38.5545    5.2020   11.4445 N.am      2 SEC2        0.0000 
     21 N          37.7290    4.1280   11.8800 N.am     10 SEL2        0.0000 
     22 N          39.3800    6.2760   11.0090 N.am      6 SEP2        0.0000 
     23 N          37.1875    5.0655   12.6445 N.am      2 SEC2        0.0000 
     24 N          36.6460    6.0030   13.4090 N.am      6 SEP2        0.0000 
     25 CA         33.6930    1.0560   13.1195 C.3       4 GLC5        0.0000 
     26 CA         33.9820    1.9300   11.5500 C.3      12 GLL5        0.0000 
     27 CA         33.4040    0.1820   14.6890 C.3       8 GLP5        0.0000 
     28 N          38.1615    0.5440   11.2235 N.am      2 SEC2        0.0000 
     29 N          37.6240    1.6470   11.7640 N.am     10 SEL2        0.0000 
     30 N          38.6990   -0.5590   10.6830 N.am      6 SEP2        0.0000 
     31 N          31.4685   -1.8760    9.6225 N.am      2 SEC2        0.0000 
     32 N          31.6110   -0.2880    9.0890 N.am     10 SEL2        0.0000 
     33 N          31.3260   -3.4640   10.1560 N.am      6 SEP2        0.0000 
     34 N          32.4605   -2.5415   10.2590 N.am      2 SEC2        0.0000 
     35 N          33.5950   -1.6190   10.3620 N.am     10 SEL2        0.0000 
     36 O          34.1150   -2.5220   11.2515 O.2       1 ALC1        0.0000 
     37 O          33.5950   -1.6190   10.3620 O.2       9 ALL1        0.0000 
     38 O          34.6350   -3.4250   12.1410 O.2       5 ALP1        0.0000 
     39 N          35.8510   -1.2045   12.4185 N.am      2 SEC2        0.0000 
     40 N          35.2580   -0.1040   12.0230 N.am     10 SEL2        0.0000 
     41 N          36.4440   -2.3050   12.8140 N.am      6 SEP2        0.0000 
     42 CA         35.5985    4.5260   10.6865 C.3       4 GLC5        0.0000 
     43 CA         35.1050    2.8540   11.6980 C.3      12 GLL5        0.0000 
     44 CA         34.4140    2.5555   13.5825 C.3       4 GLC5        0.0000 
     45 CA         33.7230    2.2570   15.4670 C.3       8 GLP5        0.0000 
     46 CA         35.7975    4.1440   13.1735 C.3       4 GLC5        0.0000 
     47 CA         36.4900    5.4340   14.6490 C.3       8 GLP5        0.0000 
     48 NZ         38.8865    4.6020   10.3835 N.4       3 LYC4        0.0000 
     49 NZ         38.3930    2.9280    9.7580 N.4      11 LYL4        0.0000 
     50 N          38.8940    1.8430    8.9900 N.am      2 SEC2        0.0000 
     51 N          38.3930    2.9280    9.7580 N.am     10 SEL2        0.0000 
     52 N          39.3950    0.7580    8.2220 N.am      6 SEP2        0.0000 
     53 CA         36.1358    0.8197    8.2785 C.3       4 GLC5        0.0000 
     54 CA         36.9370   -0.9260    9.0240 C.3       8 GLP5        0.0000 
     55 CA         32.9970   -1.0478    8.3855 C.3       4 GLC5        0.0000 
     56 CA         32.7680    0.4210    9.4630 C.3      12 GLL5        0.0000 
     57 CA         32.9540   -2.2120    6.7200 C.3       8 GLP5        0.0000 
     58 CA         33.7150   -0.4550   12.5000 C.3       4 GLC5        0.0000 
     59 CA         34.4440    0.5800   11.0290 C.3      12 GLL5        0.0000 
     60 CA         33.5520   -1.1060   14.1660 C.3       8 GLP5        0.0000 
     61 CA         35.3395   -0.2889    9.7820 C.3       4 GLC5        0.0000 
     62 CA         33.0247    3.5945   12.0835 C.3       4 GLC5        0.0000 
     63 CA         31.5060    4.7970   12.5430 C.3       8 GLP5        0.0000 
@<TRIPOS>BOND
@<TRIPOS>SUBSTRUCTURE
     1 ALC1       36 GROUP        1 X    ALC  0     ROOT ALC X 1
     2 SEC2       11 GROUP        1 X    SEC  0     **** SEC X 2
     3 LYC4       17 GROUP        1 X    LYC  0     **** LYC X 4
     4 GLC5        1 GROUP        1 X    GLC  0     **** GLC X 6
     5 ALP1       38 GROUP        1 Y    ALP  0     ROOT ALP Y 8
     6 SEP2       13 GROUP        1 Y    SEP  0     **** SEP Y 9
     7 LYP4       19 GROUP        1 Y    LYP  0     **** LYP Y 11
     8 GLP5        3 GROUP        1 Y    GLP  0     **** GLP Y 13
     9 ALL1       37 GROUP        1 Z    ALL  0     ROOT ALL Z 15
    10 SEL2       12 GROUP        1 Z    SEL  0     **** SEL Z 16
    11 LYL4       18 GROUP        1 Z    LYL  0     **** LYL Z 18
    12 GLL5        2 GROUP        1 Z    GLL  0     **** GLL Z 20
@<TRIPOS>SET

