#    Name: 4f79_P53_1_ligand
#    Modification time : Mon Mar 24 19:01:30 2014

@<TRIPOS>MOLECULE
4f79_P53_1_ligand
   41    42     1     0     0
SMALL
NO_CHARGES


@<TRIPOS>ATOM
      1 P          37.4650    2.9290   10.9810 P.3       1 P53501      0.0000 
      2 C1         34.7770    4.9150    6.8430 C.ar      1 P53501      0.0000 
      3 C2         35.9130    4.1270    6.7460 C.ar      1 P53501      0.0000 
      4 C4         35.9130    2.8230    7.2330 C.ar      1 P53501      0.0000 
      5 C6         34.7560    2.3080    7.8330 C.ar      1 P53501      0.0000 
      6 O6         35.9510    3.0130   10.5900 O.3       1 P53501      0.0000 
      7 C8         33.6170    3.0980    7.9510 C.ar      1 P53501      0.0000 
      8 C10        33.6210    4.4080    7.4350 C.ar      1 P53501      0.0000 
      9 C13        32.4020    5.2720    7.5390 C.3       1 P53501      0.0000 
     10 O15        31.6260    5.5170    6.4420 O.3       1 P53501      0.0000 
     11 O17        32.4050    2.5920    8.5200 O.3       1 P53501      0.0000 
     12 C19        32.4020    1.9000    9.6850 C.3       1 P53501      0.0000 
     13 O1P        37.7290    4.1280   11.8800 O.co2     1 P53501      0.0000 
     14 C21        32.7680    0.4210    9.4630 C.3       1 P53501      0.0000 
     15 C23        33.3120   -0.1880   10.6390 C.3       1 P53501      0.0000 
     16 C25        34.4440    0.5800   11.0290 C.3       1 P53501      0.0000 
     17 C27        33.9820    1.9300   11.5500 C.3       1 P53501      0.0000 
     18 O29        33.0490    2.6290   10.6930 O.3       1 P53501      0.0000 
     19 O2P        37.6240    1.6470   11.7640 O.co2     1 P53501      0.0000 
     20 O32        31.6110   -0.2880    9.0890 O.3       1 P53501      0.0000 
     21 O34        33.5950   -1.6190   10.3620 O.3       1 P53501      0.0000 
     22 O36        35.2580   -0.1040   12.0230 O.3       1 P53501      0.0000 
     23 C38        35.1050    2.8540   11.6980 C.3       1 P53501      0.0000 
     24 O3P        38.3930    2.9280    9.7580 O.co2     1 P53501      0.0000 
     25 H          34.7830    5.8778    6.4781 H         1 P53501      0.0000 
     26 H          36.7677    4.5079    6.3093 H         1 P53501      0.0000 
     27 H          36.7509    2.2404    7.1554 H         1 P53501      0.0000 
     28 H          34.7535    1.3424    8.1858 H         1 P53501      0.0000 
     29 H          32.7529    6.2584    8.0261 H         1 P53501      0.0000 
     30 H          31.7727    4.8304    8.4005 H         1 P53501      0.0000 
     31 H          31.2714    1.8374   10.0056 H         1 P53501      0.0000 
     32 H          33.4996    0.3941    8.6539 H         1 P53501      0.0000 
     33 H          32.5437   -0.1391   11.4296 H         1 P53501      0.0000 
     34 H          35.0686    0.7906   10.1421 H         1 P53501      0.0000 
     35 H          33.5311    1.7910   12.5357 H         1 P53501      0.0000 
     36 H          34.6894    3.8612   12.0234 H         1 P53501      0.0000 
     37 H          35.7055    2.5326   12.6086 H         1 P53501      0.0000 
     38 H          30.7431    5.8090    6.8097 H         1 P53501      0.0000 
     39 H          31.7956   -1.2372    9.3439 H         1 P53501      0.0000 
     40 H          33.9620   -1.9807   11.2190 H         1 P53501      0.0000 
     41 H          36.1308    0.3841   12.0229 H         1 P53501      0.0000 
@<TRIPOS>BOND
     1    6    1 1    
     2   13    1 ar   
     3   19    1 ar   
     4   24    1 ar   
     5    3    2 ar   
     6    8    2 ar   
     7   25    2 1    
     8    4    3 ar   
     9   26    3 1    
    10    5    4 ar   
    11   27    4 1    
    12    7    5 ar   
    13   28    5 1    
    14   23    6 1    
    15    8    7 ar   
    16   11    7 1    
    17    9    8 1    
    18   10    9 1    
    19   29    9 1    
    20   30    9 1    
    21   38   10 1    
    22   12   11 1    
    23   14   12 1    
    24   18   12 1    
    25   31   12 1    
    26   15   14 1    
    27   20   14 1    
    28   32   14 1    
    29   16   15 1    
    30   21   15 1    
    31   33   15 1    
    32   17   16 1    
    33   22   16 1    
    34   34   16 1    
    35   18   17 1    
    36   23   17 1    
    37   35   17 1    
    38   39   20 1    
    39   40   21 1    
    40   41   22 1    
    41   36   23 1    
    42   37   23 1    
@<TRIPOS>SUBSTRUCTURE
     1 P53501      1 GROUP   
@<TRIPOS>SET

