#    Name: 1jq9_PHE_LEU_SER_TYR_LYS_1_INTS_M
#    Modification time : Tue Mar 25 09:15:27 2014

@<TRIPOS>MOLECULE
1jq9_PHE_LEU_SER_TYR_LYS_1_INTS_M
   88     0    12     0     0
SMALL
NO_CHARGES


@<TRIPOS>ATOM
      1 O           9.6420   14.9885   38.9745 O.2       1 ALC1        0.0000 
      2 O           8.5750   15.7090   38.3060 O.2       9 ALL1        0.0000 
      3 O          10.7090   14.2680   39.6430 O.2       5 ALP1        0.0000 
      4 CA         11.1965   15.1965   37.8505 C.3       4 GLC5        0.0000 
      5 CA          9.6020   15.8610   37.2350 C.3      12 GLL5        0.0000 
      6 CA         12.7910   14.5320   38.4660 C.3       8 GLP5        0.0000 
      7 CA          7.9185   13.1385   38.8255 C.3       4 GLC5        0.0000 
      8 CA          8.4280   12.9400   36.7600 C.3      12 GLL5        0.0000 
      9 CA          7.4090   13.3370   40.8910 C.3       8 GLP5        0.0000 
     10 CA         11.5115   20.8880   38.0260 C.3       4 GLC5        0.0000 
     11 CA         10.3180   19.2050   38.4100 C.3      12 GLL5        0.0000 
     12 CA         12.7050   22.5710   37.6420 C.3       8 GLP5        0.0000 
     13 CA          9.7820   21.8835   37.7620 C.3       4 GLC5        0.0000 
     14 CA          9.0340   19.8430   37.8730 C.3      12 GLL5        0.0000 
     15 CA         10.5300   23.9240   37.6510 C.3       8 GLP5        0.0000 
     16 CA          7.8935   20.2875   36.0150 C.3       4 GLC5        0.0000 
     17 CA          6.7530   20.7320   34.1570 C.3       8 GLP5        0.0000 
     18 CA          6.2320   21.0770   39.8145 C.3       4 GLC5        0.0000 
     19 CA          7.6400   19.6160   39.9250 C.3      12 GLL5        0.0000 
     20 CA          4.8240   22.5380   39.7040 C.3       8 GLP5        0.0000 
     21 O          12.2250   18.1685   40.2395 O.2       1 ALC1        0.0000 
     22 O          11.7100   19.5640   40.4120 O.2       9 ALL1        0.0000 
     23 O          12.7400   16.7730   40.0670 O.2       5 ALP1        0.0000 
     24 CA         11.9290   21.8510   39.9990 C.3       4 GLC5        0.0000 
     25 CA         12.1740   20.3780   41.5350 C.3      12 GLL5        0.0000 
     26 CA         11.6840   23.3240   38.4630 C.3       8 GLP5        0.0000 
     27 CA         14.2680   25.0805   40.9565 C.3       4 GLC5        0.0000 
     28 CA         15.6850   23.6030   41.4590 C.3      12 GLL5        0.0000 
     29 CA         12.8510   26.5580   40.4540 C.3       8 GLP5        0.0000 
     30 CA         17.5745   25.8675   42.7680 C.3       4 GLC5        0.0000 
     31 CA         18.0890   24.4260   41.4820 C.3      12 GLL5        0.0000 
     32 CA         17.0600   27.3090   44.0540 C.3       8 GLP5        0.0000 
     33 CA         19.4635   25.7995   42.5835 C.3       4 GLC5        0.0000 
     34 CA         20.8380   27.1730   43.6850 C.3       8 GLP5        0.0000 
     35 CA         20.3985   26.0695   41.5860 C.3       4 GLC5        0.0000 
     36 CA         19.2980   24.7160   40.8420 C.3      12 GLL5        0.0000 
     37 CA         21.4990   27.4230   42.3300 C.3       8 GLP5        0.0000 
     38 N          17.1290   20.5715   47.8270 N.am      2 SEC2        0.0000 
     39 N          17.9440   21.1520   46.7730 N.am     10 SEL2        0.0000 
     40 N          16.3140   19.9910   48.8810 N.am      6 SEP2        0.0000 
     41 CA         15.6545   25.0880   48.5925 C.3       4 GLC5        0.0000 
     42 CA         16.6650   24.4650   46.8830 C.3      12 GLL5        0.0000 
     43 CA         14.6440   25.7110   50.3020 C.3       8 GLP5        0.0000 
     44 CA         19.8455   26.1425   45.1275 C.3       4 GLC5        0.0000 
     45 CA         18.8530   25.1120   46.5700 C.3      12 GLL5        0.0000 
     46 OD1        19.9110   24.4415   48.2420 O.co2     3 ASC3        0.0000 
     47 OD1        19.9650   25.8140   47.2620 O.co2    11 ASL3        0.0000 
     48 OD1        19.8570   23.0690   49.2220 O.co2     7 ASP3        0.0000 
     49 OD1        19.9400   25.4485   48.6790 O.co2     3 ASC3        0.0000 
     50 OD1        19.9150   25.0830   50.0960 O.co2     7 ASP3        0.0000 
     51 O          19.9400   25.4485   48.6790 O.2       1 ALC1        0.0000 
     52 O          19.9650   25.8140   47.2620 O.2       9 ALL1        0.0000 
     53 O          19.9150   25.0830   50.0960 O.2       5 ALP1        0.0000 
     54 CA         10.3957   13.6268   36.4100 C.3       4 GLC5        0.0000 
     55 CA          9.1170   15.2150   35.9330 C.3      12 GLL5        0.0000 
     56 CA         12.1870   12.5790   36.7880 C.3       8 GLP5        0.0000 
     57 CA          9.7488   12.0055   37.2933 C.3       4 GLC5        0.0000 
     58 CA         11.5470   11.5690   37.7270 C.3       8 GLP5        0.0000 
     59 CA          6.6818   11.5593   38.4993 C.3       4 GLC5        0.0000 
     60 CA          7.4730   11.9440   36.9590 C.3      12 GLL5        0.0000 
     61 CA          6.5450   11.0770   40.2560 C.3       8 GLP5        0.0000 
     62 CA          9.6745   18.5515   39.8017 C.3       4 GLC5        0.0000 
     63 CA          9.6730   17.5790   41.4620 C.3       8 GLP5        0.0000 
     64 CA          9.3550   20.5430   40.0352 C.3       4 GLC5        0.0000 
     65 CA          9.0340   21.5620   41.9290 C.3       8 GLP5        0.0000 
     66 CA          5.6120   19.8622   37.7553 C.3       4 GLC5        0.0000 
     67 CA          7.6400   19.5000   38.4290 C.3      12 GLL5        0.0000 
     68 CA          3.7960   20.9230   37.2940 C.3       8 GLP5        0.0000 
     69 CA          8.3370   20.5600   40.5530 C.3       4 GLC5        0.0000 
     70 CA          8.6035   18.3939   40.2664 C.3       4 GLC5        0.0000 
     71 CA         12.7550   19.3607   43.7522 C.3       4 GLC5        0.0000 
     72 CA         13.5610   18.6500   45.3080 C.3       8 GLP5        0.0000 
     73 CA         10.8110   18.8253   41.8293 C.3       4 GLC5        0.0000 
     74 CA         11.7240   19.7650   42.8580 C.3      12 GLL5        0.0000 
     75 CA         10.7905   20.3047   43.6893 C.3       4 GLC5        0.0000 
     76 CA          9.6320   20.5380   45.1820 C.3       8 GLP5        0.0000 
     77 CA         10.4915   20.8167   42.0628 C.3       4 GLC5        0.0000 
     78 CA         15.8577   21.6235   40.2325 C.3       4 GLC5        0.0000 
     79 CA         15.4940   22.1830   42.0050 C.3      12 GLL5        0.0000 
     80 CA         16.1260   20.3540   38.7330 C.3       8 GLP5        0.0000 
     81 CA         16.9351   22.0857   39.0854 C.3       4 GLC5        0.0000 
     82 CA         18.3870   23.8930   38.7750 C.3      12 GLL5        0.0000 
     83 CA         17.7157   25.2544   38.1225 C.3       4 GLC5        0.0000 
     84 CA         17.1870   23.6100   39.4210 C.3      12 GLL5        0.0000 
     85 CA         16.8200   26.4090   36.9520 C.3       8 GLP5        0.0000 
     86 CA         16.1013   25.9480   47.0823 C.3       4 GLC5        0.0000 
     87 CA         14.8390   27.4300   47.1130 C.3       8 GLP5        0.0000 
     88 CA         17.5841   26.0490   45.4324 C.3       4 GLC5        0.0000 
@<TRIPOS>BOND
@<TRIPOS>SUBSTRUCTURE
     1 ALC1        1 GROUP        1 X    ALC  0     ROOT ALC X 1
     2 SEC2       38 GROUP        1 X    SEC  0     **** SEC X 2
     3 ASC3       46 GROUP        1 X    ASC  0     **** ASC X 3
     4 GLC5        4 GROUP        1 X    GLC  0     **** GLC X 6
     5 ALP1        3 GROUP        1 Y    ALP  0     ROOT ALP Y 8
     6 SEP2       40 GROUP        1 Y    SEP  0     **** SEP Y 9
     7 ASP3       48 GROUP        1 Y    ASP  0     **** ASP Y 10
     8 GLP5        6 GROUP        1 Y    GLP  0     **** GLP Y 13
     9 ALL1        2 GROUP        1 Z    ALL  0     ROOT ALL Z 15
    10 SEL2       39 GROUP        1 Z    SEL  0     **** SEL Z 16
    11 ASL3       47 GROUP        1 Z    ASL  0     **** ASL Z 17
    12 GLL5        5 GROUP        1 Z    GLL  0     **** GLL Z 20
@<TRIPOS>SET

