#    Name: 1jq9_PHE_LEU_SER_TYR_LYS_1_ligand
#    Modification time : Tue Mar 25 09:15:27 2014

@<TRIPOS>MOLECULE
1jq9_PHE_LEU_SER_TYR_LYS_1_ligand
   97    98     5     0     0
SMALL
NO_CHARGES


@<TRIPOS>ATOM
      1 N           8.5750   15.7090   38.3060 N.4       1 PHE1        0.0000
      2 CA          9.6020   15.8610   37.2350 C.3       1 PHE1        0.0000
      3 C           9.8300   17.3450   36.9780 C.2       1 PHE1        0.0000
      4 O           9.8030   17.7720   35.8240 O.2       1 PHE1        0.0000
      5 CB          9.1170   15.2150   35.9330 C.3       1 PHE1        0.0000
      6 CG          8.0920   14.1340   36.1310 C.ar      1 PHE1        0.0000
      7 CD1         8.4280   12.9400   36.7600 C.ar      1 PHE1        0.0000
      8 CD2         6.7800   14.3170   35.7000 C.ar      1 PHE1        0.0000
      9 CE1         7.4730   11.9440   36.9590 C.ar      1 PHE1        0.0000
     10 CE2         5.8180   13.3280   35.8960 C.ar      1 PHE1        0.0000
     11 CZ          6.1640   12.1390   36.5260 C.ar      1 PHE1        0.0000
     12 HA         10.5206   15.4132   37.5277 H         1 PHE1        0.0000
     13 HB2         9.9929   14.8014   35.4014 H         1 PHE1        0.0000
     14 HB3         8.6993   16.0068   35.2853 H         1 PHE1        0.0000
     15 HD1         9.3973   12.7877   37.0845 H         1 PHE1        0.0000
     16 HD2         6.5162   15.1982   35.2284 H         1 PHE1        0.0000
     17 HE1         7.7356   11.0670   37.4249 H         1 PHE1        0.0000
     18 HE2         4.8540   13.4798   35.5741 H         1 PHE1        0.0000
     19 HZ          5.4597   11.4076   36.6721 H         1 PHE1        0.0000
     20 HNCA        8.5899   16.4768   38.9465 H         1 PHE1        0.0000
     21 H           7.6500   15.6595   37.9293 H         1 PHE1        0.0000
     22 H           8.7180   14.8771   38.8422 H         1 PHE1        0.0000
     23 N          10.1140   17.7640   38.5350 N.am      2 LEU2        0.0000
     24 CA         10.3180   19.2050   38.4100 C.3       2 LEU2        0.0000
     25 C          10.7950   20.0580   39.5860 C.2       2 LEU2        0.0000
     26 O          10.3390   21.1900   39.7310 O.2       2 LEU2        0.0000
     27 CB          9.0340   19.8430   37.8730 C.3       2 LEU2        0.0000
     28 CG          7.6400   19.5000   38.4290 C.3       2 LEU2        0.0000
     29 CD1         7.2160   18.1030   38.0040 C.3       2 LEU2        0.0000
     30 CD2         7.6400   19.6160   39.9250 C.3       2 LEU2        0.0000
     31 HNCA       10.1177   17.2090   39.1669 H         2 LEU2        0.0000
     32 HA         11.0630   19.3896   37.5681 H         2 LEU2        0.0000
     33 HB2         9.0046   19.6703   36.7449 H         2 LEU2        0.0000
     34 HB3         9.1569   20.9765   37.9326 H         2 LEU2        0.0000
     35 HG          6.9332   20.2150   38.0199 H         2 LEU2        0.0000
     36 HD11        7.1748   18.0140   37.0088 H         2 LEU2        0.0000
     37 HD12        7.8516   17.4053   38.3346 H         2 LEU2        0.0000
     38 HD13        6.3110   17.8660   38.3572 H         2 LEU2        0.0000
     39 HD21        8.2995   18.9932   40.3458 H         2 LEU2        0.0000
     40 HD22        7.8762   20.5400   40.2259 H         2 LEU2        0.0000
     41 HD23        6.7443   19.4010   40.3142 H         2 LEU2        0.0000
     42 N          11.7100   19.5640   40.4120 N.am      3 SER3        0.0000
     43 CA         12.1740   20.3780   41.5350 C.3       3 SER3        0.0000
     44 C          13.6800   20.6050   41.5720 C.2       3 SER3        0.0000
     45 O          14.4560   19.6990   41.2890 O.2       3 SER3        0.0000
     46 CB         11.7240   19.7650   42.8580 C.3       3 SER3        0.0000
     47 OG         12.1760   20.5610   43.9390 O.3       3 SER3        0.0000
     48 HNCA       12.1231   18.6325   40.3163 H         3 SER3        0.0000
     49 HA         11.6956   21.3770   41.4838 H         3 SER3        0.0000
     50 HB2        12.1248   18.7429   42.9037 H         3 SER3        0.0000
     51 HB3        10.6281   19.6889   42.8329 H         3 SER3        0.0000
     52 HG         13.1501   20.7051   43.7646 H         3 SER3        0.0000
     53 N          14.0810   21.8210   41.9330 N.am      4 TYR4        0.0000
     54 CA         15.4940   22.1830   42.0050 C.3       4 TYR4        0.0000
     55 C          15.9400   22.1160   43.4620 C.2       4 TYR4        0.0000
     56 O          15.3160   21.4330   44.2750 O.2       4 TYR4        0.0000
     57 CB         15.6850   23.6030   41.4590 C.3       4 TYR4        0.0000
     58 CG         17.0160   23.8740   40.7800 C.ar      4 TYR4        0.0000
     59 CD1        18.0890   24.4260   41.4820 C.ar      4 TYR4        0.0000
     60 CD2        17.1870   23.6100   39.4210 C.ar      4 TYR4        0.0000
     61 CE1        19.2980   24.7160   40.8420 C.ar      4 TYR4        0.0000
     62 CE2        18.3870   23.8930   38.7750 C.ar      4 TYR4        0.0000
     63 CZ         19.4360   24.4480   39.4880 C.ar      4 TYR4        0.0000
     64 OH         20.6120   24.7520   38.8410 O.3       4 TYR4        0.0000
     65 HNCA       13.4082   22.5781   42.1830 H         4 TYR4        0.0000
     66 HA         16.0891   21.5078   41.4289 H         4 TYR4        0.0000
     67 HB2        15.5529   24.3215   42.2955 H         4 TYR4        0.0000
     68 HB3        14.8636   23.8172   40.7429 H         4 TYR4        0.0000
     69 HD1        17.9892   24.6240   42.4917 H         4 TYR4        0.0000
     70 HD2        16.4045   23.1950   38.8829 H         4 TYR4        0.0000
     71 HE1        20.0730   25.1233   41.3735 H         4 TYR4        0.0000
     72 HE2        18.4905   23.6897   37.7736 H         4 TYR4        0.0000
     73 HH         21.0917   23.8790   38.7525 H         4 TYR4        0.0000
     74 N          17.0230   22.8160   43.7850 N.am      5 LYS5        0.0000
     75 CA         17.4770   22.8520   45.1510 C.3       5 LYS5        0.0000
     76 C          18.0450   21.5090   45.6040 C.2       5 LYS5        0.0000
     77 O          17.9440   21.1520   46.7730 O.2       5 LYS5        0.0000
     78 CB         16.3280   23.2500   46.0730 C.3       5 LYS5        0.0000
     79 CG         16.6650   24.4650   46.8830 C.3       5 LYS5        0.0000
     80 CD         18.0620   24.4670   47.2200 C.3       5 LYS5        0.0000
     81 CE         18.8530   25.1120   46.5700 C.3       5 LYS5        0.0000
     82 NZ         19.9650   25.8140   47.2620 N.4       5 LYS5        0.0000
     83 OXT        18.9400   20.9320   44.9460 O.3       5 LYS5        0.0000
     84 HNCA       17.5721   23.3498   43.0937 H         5 LYS5        0.0000
     85 HA         18.2617   23.6010   45.2745 H         5 LYS5        0.0000
     86 HB2        16.1035   22.4095   46.7391 H         5 LYS5        0.0000
     87 HB3        15.4384   23.4443   45.4636 H         5 LYS5        0.0000
     88 HG2        16.0404   24.4663   47.7886 H         5 LYS5        0.0000
     89 HG3        16.3981   25.3592   46.3004 H         5 LYS5        0.0000
     90 HD2        18.3490   23.3253   47.3075 H         5 LYS5        0.0000
     91 HD3        18.0899   24.7171   48.3733 H         5 LYS5        0.0000
     92 HE2        18.3684   25.9453   45.9045 H         5 LYS5        0.0000
     93 HE3        19.3894   24.5086   45.7214 H         5 LYS5        0.0000
     94 HZ1        19.9316   26.8020   47.1110 H         5 LYS5        0.0000
     95 HZ2        19.9383   25.6675   48.2508 H         5 LYS5        0.0000
     96 HZ3        20.8588   25.4988   46.9430 H         5 LYS5        0.0000
     97 H          19.7757   21.4458   45.1400 H         5 LYS5        0.0000
@<TRIPOS>BOND
     1    2    1 1
     2   20    1 1
     3   21    1 1
     4   22    1 1
     5    3    2 1
     6    5    2 1
     7   12    2 1
     8    4    3 2
     9    6    5 1
    10   13    5 1
    11   14    5 1
    12    7    6 ar
    13    8    6 ar
    14    9    7 ar
    15   15    7 1
    16   10    8 ar
    17   16    8 1
    18   11    9 ar
    19   17    9 1
    20   11   10 ar
    21   18   10 1
    22   19   11 1
    23   24   23 1
    24   31   23 1
    25   25   24 1
    26   27   24 1
    27   32   24 1
    28   26   25 2
    29   28   27 1
    30   33   27 1
    31   34   27 1
    32   29   28 1
    33   30   28 1
    34   35   28 1
    35   36   29 1
    36   37   29 1
    37   38   29 1
    38   39   30 1
    39   40   30 1
    40   41   30 1
    41   43   42 1
    42   48   42 1
    43   44   43 1
    44   46   43 1
    45   49   43 1
    46   45   44 2
    47   47   46 1
    48   50   46 1
    49   51   46 1
    50   52   47 1
    51   54   53 1
    52   65   53 1
    53   55   54 1
    54   57   54 1
    55   66   54 1
    56   56   55 2
    57   58   57 1
    58   67   57 1
    59   68   57 1
    60   59   58 ar
    61   60   58 ar
    62   61   59 ar
    63   69   59 1
    64   62   60 ar
    65   70   60 1
    66   63   61 ar
    67   71   61 1
    68   63   62 ar
    69   72   62 1
    70   64   63 1
    71   73   64 1
    72   75   74 1
    73   84   74 1
    74   76   75 1
    75   78   75 1
    76   85   75 1
    77   77   76 2
    78   83   76 1
    79   79   78 1
    80   86   78 1
    81   87   78 1
    82   80   79 1
    83   88   79 1
    84   89   79 1
    85   81   80 1
    86   90   80 1
    87   91   80 1
    88   82   81 1
    89   92   81 1
    90   93   81 1
    91   94   82 1
    92   95   82 1
    93   96   82 1
    94   97   83 1
    95   23    3 am
    96   42   25 am
    97   53   44 am
    98   74   55 am
@<TRIPOS>SUBSTRUCTURE
     1 PHE1        1 RESIDUE
     2 LEU2       23 RESIDUE
     3 SER3       42 RESIDUE
     4 TYR4       53 RESIDUE
     5 LYS5       74 RESIDUE
@<TRIPOS>SET

