#    Name: 2nnh_REA_2_INTS_M
#    Modification time : Tue Mar 25 21:22:16 2014

@<TRIPOS>MOLECULE
2nnh_REA_2_INTS_M
   62     0     9     0     0
SMALL
NO_CHARGES


@<TRIPOS>ATOM
      1 CA         11.0970   65.2980   32.6525 C.3       3 GLC5        0.0000 
      2 CA         12.1320   63.6970   31.4980 C.3       9 GLL5        0.0000 
      3 CA         10.0620   66.8990   33.8070 C.3       6 GLP5        0.0000 
      4 CA          9.1090   62.9455   30.9100 C.3       3 GLC5        0.0000 
      5 CA         11.0270   62.8050   30.8480 C.3       9 GLL5        0.0000 
      6 CA          7.1910   63.0860   30.9720 C.3       6 GLP5        0.0000 
      7 CA         15.0060   61.2750   26.6695 C.3       3 GLC5        0.0000 
      8 CA         13.4130   60.8450   28.1910 C.3       9 GLL5        0.0000 
      9 CA         16.5990   61.7050   25.1480 C.3       6 GLP5        0.0000 
     10 CA         14.5130   56.0320   26.1825 C.3       3 GLC5        0.0000 
     11 CA         13.5710   57.2330   27.5460 C.3       9 GLL5        0.0000 
     12 CA         15.4550   54.8310   24.8190 C.3       6 GLP5        0.0000 
     13 CA          9.8500   53.4235   28.3650 C.3       3 GLC5        0.0000 
     14 CA         11.1190   53.9350   30.0060 C.3       9 GLL5        0.0000 
     15 CA          8.5810   52.9120   26.7240 C.3       6 GLP5        0.0000 
     16 CA         12.4705   53.0175   30.6475 C.3       3 GLC5        0.0000 
     17 CA         13.8220   52.1000   31.2890 C.3       6 GLP5        0.0000 
     18 CA         13.0080   64.5520   26.5765 C.3       3 GLC5        0.0000 
     19 CA         14.2180   64.0100   28.1420 C.3       9 GLL5        0.0000 
     20 CA         11.7980   65.0940   25.0110 C.3       6 GLP5        0.0000 
     21 CA         15.6950   63.5590   26.6580 C.3       3 GLC5        0.0000 
     22 CA         17.1720   63.1080   25.1740 C.3       6 GLP5        0.0000 
     23 CA          8.8115   61.1230   30.0580 C.3       3 GLC5        0.0000 
     24 CA         10.5620   60.5320   29.7820 C.3       9 GLL5        0.0000 
     25 CA          7.0610   61.7140   30.3340 C.3       6 GLP5        0.0000 
     26 CA          9.9550   59.0875   28.9810 C.3       3 GLC5        0.0000 
     27 CA          9.3480   57.6430   28.1800 C.3       6 GLP5        0.0000 
     28 CA         15.7155   57.1860   25.2610 C.3       3 GLC5        0.0000 
     29 CA         14.8990   58.7070   26.0250 C.3       9 GLL5        0.0000 
     30 CA         16.5320   55.6650   24.4970 C.3       6 GLP5        0.0000 
     31 CA         14.5355   58.8340   24.0990 C.3       3 GLC5        0.0000 
     32 CA         14.1720   58.9610   22.1730 C.3       6 GLP5        0.0000 
     33 CA         15.7490   60.2060   25.5865 C.3       3 GLC5        0.0000 
     34 CA         16.8495   58.9115   25.1355 C.3       3 GLC5        0.0000 
     35 CA         18.8000   59.1160   24.2460 C.3       6 GLP5        0.0000 
     36 CA          9.7140   56.1285   32.5550 C.3       3 GLC5        0.0000 
     37 CA         11.2000   56.2520   31.2010 C.3       9 GLL5        0.0000 
     38 CA          8.2280   56.0050   33.9090 C.3       6 GLP5        0.0000 
     39 CA         10.2740   56.9475   29.6905 C.3       3 GLC5        0.0000 
     40 CA         13.0715   55.1595   30.7105 C.3       3 GLC5        0.0000 
     41 CA         14.9430   54.0670   30.2200 C.3       6 GLP5        0.0000 
     42 N           8.2190   52.5100   29.6225 N.am      1 SEC2        0.0000 
     43 N           9.4300   52.3680   30.6750 N.am      7 SEL2        0.0000 
     44 N           7.0080   52.6520   28.5700 N.am      4 SEP2        0.0000 
     45 NZ         10.0230   52.7615   33.4220 N.4       2 LYC4        0.0000 
     46 NZ         10.5000   53.3580   32.2870 N.4       8 LYL4        0.0000 
     47 NZ          9.0120   51.0220   34.9700 N.4       5 LYP4        0.0000 
     48 N          10.0230   52.7615   33.4220 N.am      1 SEC2        0.0000 
     49 N          10.5000   53.3580   32.2870 N.am      7 SEL2        0.0000 
     50 N           9.5460   52.1650   34.5570 N.am      4 SEP2        0.0000 
     51 CA         10.9853   63.1570   33.1035 C.3       3 GLC5        0.0000 
     52 CA         10.3910   63.0630   35.0340 C.3       6 GLP5        0.0000 
     53 CA         12.0000   59.5010   27.1975 C.3       3 GLC5        0.0000 
     54 CA         10.3400   58.7940   26.1520 C.3       6 GLP5        0.0000 
     55 CA         12.0910   58.3377   26.7948 C.3       3 GLC5        0.0000 
     56 CA         14.1130   58.5300   27.3290 C.3       9 GLL5        0.0000 
     57 CA         14.0710   55.5632   29.1640 C.3       3 GLC5        0.0000 
     58 CA         10.9573   56.9528   28.4748 C.3       3 GLC5        0.0000 
     59 CA         12.3060   55.6390   28.8690 C.3       9 GLL5        0.0000 
     60 CA         13.4340   54.7590   29.8295 C.3       3 GLC5        0.0000 
     61 CA         10.3398   56.1210   29.0938 C.3       3 GLC5        0.0000 
     62 CA         11.5440   55.2630   30.0090 C.3       9 GLL5        0.0000 
@<TRIPOS>BOND
@<TRIPOS>SUBSTRUCTURE
     1 SEC2       42 GROUP        1 X    SEC  0     ROOT SEC X 2
     2 LYC4       45 GROUP        1 X    LYC  0     **** LYC X 4
     3 GLC5        1 GROUP        1 X    GLC  0     **** GLC X 6
     4 SEP2       44 GROUP        1 Y    SEP  0     ROOT SEP Y 9
     5 LYP4       47 GROUP        1 Y    LYP  0     **** LYP Y 11
     6 GLP5        3 GROUP        1 Y    GLP  0     **** GLP Y 13
     7 SEL2       43 GROUP        1 Z    SEL  0     ROOT SEL Z 16
     8 LYL4       46 GROUP        1 Z    LYL  0     **** LYL Z 18
     9 GLL5        2 GROUP        1 Z    GLL  0     **** GLL Z 20
@<TRIPOS>SET

