#    Name: 2nnh_REA_2_ligand
#    Modification time : Tue Mar 25 21:22:16 2014

@<TRIPOS>MOLECULE
2nnh_REA_2_ligand
   49    49     1     0     0
SMALL
NO_CHARGES


@<TRIPOS>ATOM
      1 C1         13.7800   63.2160   29.3780 C.3       1 REA502      0.0000 
      2 C2         13.1450   64.2770   30.4220 C.3       1 REA502      0.0000 
      3 C3         12.1320   63.6970   31.4980 C.3       1 REA502      0.0000 
      4 C4         11.0270   62.8050   30.8480 C.3       1 REA502      0.0000 
      5 C5         11.5420   61.6980   29.8670 C.2       1 REA502      0.0000 
      6 C6         12.8500   61.8240   29.1250 C.2       1 REA502      0.0000 
      7 C7         13.4130   60.8450   28.1910 C.2       1 REA502      0.0000 
      8 C8         13.9070   59.5710   28.2950 C.2       1 REA502      0.0000 
      9 C9         14.1130   58.5300   27.3290 C.2       1 REA502      0.0000 
     10 C10        13.5710   57.2330   27.5460 C.2       1 REA502      0.0000 
     11 C11        12.8270   56.8860   28.6700 C.2       1 REA502      0.0000 
     12 C12        12.3060   55.6390   28.8690 C.2       1 REA502      0.0000 
     13 C13        11.5440   55.2630   30.0090 C.2       1 REA502      0.0000 
     14 C14        11.1190   53.9350   30.0060 C.2       1 REA502      0.0000 
     15 C15        10.2900   53.1660   31.0590 C.2       1 REA502      0.0000 
     16 C16        15.1730   62.7170   30.0550 C.3       1 REA502      0.0000 
     17 C17        14.2180   64.0100   28.1420 C.3       1 REA502      0.0000 
     18 C18        10.5620   60.5320   29.7820 C.3       1 REA502      0.0000 
     19 C19        14.8990   58.7070   26.0250 C.3       1 REA502      0.0000 
     20 C20        11.2000   56.2520   31.2010 C.3       1 REA502      0.0000 
     21 O1          9.4300   52.3680   30.6750 O.co2     1 REA502      0.0000 
     22 O2         10.5000   53.3580   32.2870 O.co2     1 REA502      0.0000 
     23 H          12.6306   65.0504   29.8352 H         1 REA502      0.0000 
     24 H          13.9786   64.7616   30.9486 H         1 REA502      0.0000 
     25 H          11.6639   64.5317   32.0084 H         1 REA502      0.0000 
     26 H          12.6958   63.1055   32.2112 H         1 REA502      0.0000 
     27 H          10.3273   63.4567   30.3003 H         1 REA502      0.0000 
     28 H          10.4522   62.3172   31.6517 H         1 REA502      0.0000 
     29 H          13.4324   61.2689   27.1403 H         1 REA502      0.0000 
     30 H          14.2146   59.2636   29.3219 H         1 REA502      0.0000 
     31 H          13.7487   56.5061   26.8108 H         1 REA502      0.0000 
     32 H          12.6631   57.6313   29.3990 H         1 REA502      0.0000 
     33 H          12.4674   54.8890   28.1411 H         1 REA502      0.0000 
     34 H          11.3804   53.3106   29.1700 H         1 REA502      0.0000 
     35 H          15.6464   62.0489   29.4810 H         1 REA502      0.0000 
     36 H          15.8064   63.4764   30.2042 H         1 REA502      0.0000 
     37 H          15.0200   62.2841   30.9434 H         1 REA502      0.0000 
     38 H          14.8973   64.7075   28.3702 H         1 REA502      0.0000 
     39 H          14.6269   63.4190   27.4466 H         1 REA502      0.0000 
     40 H          13.4482   64.4806   27.7109 H         1 REA502      0.0000 
     41 H          10.8852   59.8199   29.1587 H         1 REA502      0.0000 
     42 H          10.4207   60.0999   30.6727 H         1 REA502      0.0000 
     43 H           9.6643   60.8246   29.4525 H         1 REA502      0.0000 
     44 H          15.8459   58.9792   26.1961 H         1 REA502      0.0000 
     45 H          14.9289   57.8616   25.4917 H         1 REA502      0.0000 
     46 H          14.4935   59.4088   25.4393 H         1 REA502      0.0000 
     47 H          12.0258   56.6043   31.6413 H         1 REA502      0.0000 
     48 H          10.6748   57.0431   30.8874 H         1 REA502      0.0000 
     49 H          10.6578   55.8031   31.9113 H         1 REA502      0.0000 
@<TRIPOS>BOND
     1    2    1 1    
     2    6    1 1    
     3   16    1 1    
     4   17    1 1    
     5    3    2 1    
     6   23    2 1    
     7   24    2 1    
     8    4    3 1    
     9   25    3 1    
    10   26    3 1    
    11    5    4 1    
    12   27    4 1    
    13   28    4 1    
    14    6    5 2    
    15   18    5 1    
    16    7    6 1    
    17    8    7 2    
    18   29    7 1    
    19    9    8 1    
    20   30    8 1    
    21   10    9 2    
    22   19    9 1    
    23   11   10 1    
    24   31   10 1    
    25   12   11 2    
    26   32   11 1    
    27   13   12 1    
    28   33   12 1    
    29   14   13 2    
    30   20   13 1    
    31   15   14 1    
    32   34   14 1    
    33   21   15 ar   
    34   22   15 ar   
    35   35   16 1    
    36   36   16 1    
    37   37   16 1    
    38   38   17 1    
    39   39   17 1    
    40   40   17 1    
    41   41   18 1    
    42   42   18 1    
    43   43   18 1    
    44   44   19 1    
    45   45   19 1    
    46   46   19 1    
    47   47   20 1    
    48   48   20 1    
    49   49   20 1    
@<TRIPOS>SUBSTRUCTURE
     1 REA502      1 GROUP   
@<TRIPOS>SET

