#    Name: 1w19_T1P_1_INTS_M
#    Modification time : Tue Mar 25 08:26:39 2014

@<TRIPOS>MOLECULE
1w19_T1P_1_INTS_M
   85     0    12     0     0
SMALL
NO_CHARGES


@<TRIPOS>ATOM
      1 N         -16.0590    1.0510    0.6205 N.am      2 SEC2        0.0000 
      2 N         -17.4770    0.5530    1.1680 N.am     10 SEL2        0.0000 
      3 N         -14.6410    1.5490    0.0730 N.am      6 SEP2        0.0000 
      4 N         -16.9040    1.5260    1.7930 N.am      2 SEC2        0.0000 
      5 N         -16.3310    2.4990    2.4180 N.am      6 SEP2        0.0000 
      6 NZ        -19.2415    2.4230   -0.4710 N.4       3 LYC4        0.0000 
      7 NZ        -19.7570    1.6730    0.9800 N.4      11 LYL4        0.0000 
      8 NZ        -19.1400    4.2950   -1.3810 N.4       7 LYP4        0.0000 
      9 N         -19.7560    2.9550    0.3830 N.am      2 SEC2        0.0000 
     10 N         -19.7570    1.6730    0.9800 N.am     10 SEL2        0.0000 
     11 N         -19.7550    4.2370   -0.2140 N.am      6 SEP2        0.0000 
     12 N         -19.2415    2.4230   -0.4710 N.am      2 SEC2        0.0000 
     13 N         -18.7260    3.1730   -1.9220 N.am      6 SEP2        0.0000 
     14 CA        -17.9260   -2.0545    0.5960 C.3       4 GLC5        0.0000 
     15 CA        -19.3100   -1.8580    2.2550 C.3      12 GLL5        0.0000 
     16 CA        -16.5420   -2.2510   -1.0630 C.3       8 GLP5        0.0000 
     17 CA        -20.0840   -0.7755    4.8410 C.3       4 GLC5        0.0000 
     18 CA        -20.0290   -2.4320    3.4600 C.3      12 GLL5        0.0000 
     19 CA        -20.1390    0.8810    6.2220 C.3       8 GLP5        0.0000 
     20 CA        -18.0840   -2.6115    4.5420 C.3       4 GLC5        0.0000 
     21 CA        -16.1390   -2.7910    5.6240 C.3       8 GLP5        0.0000 
     22 CA        -23.0775   -2.5410    2.3200 C.3       4 GLC5        0.0000 
     23 CA        -21.4850   -2.2260    3.1370 C.3      12 GLL5        0.0000 
     24 CA        -24.6700   -2.8560    1.5030 C.3       8 GLP5        0.0000 
     25 N         -23.3875    0.5695    3.9970 N.am      2 SEC2        0.0000 
     26 N         -22.7710   -0.3700    5.0140 N.am     10 SEL2        0.0000 
     27 N         -24.0040    1.5090    2.9800 N.am      6 SEP2        0.0000 
     28 CA        -23.9850   -3.8300    3.3640 C.3       4 GLC5        0.0000 
     29 CA        -22.7880   -3.6730    4.6460 C.3      12 GLL5        0.0000 
     30 CA        -25.1820   -3.9870    2.0820 C.3       8 GLP5        0.0000 
     31 N         -22.5610   -6.2545    1.9995 N.am      2 SEC2        0.0000 
     32 N         -21.9240   -5.4200    3.3230 N.am     10 SEL2        0.0000 
     33 N         -23.1980   -7.0890    0.6760 N.am      6 SEP2        0.0000 
     34 N         -20.6635   -6.5395    2.9940 N.am      2 SEC2        0.0000 
     35 N         -19.4030   -7.6590    2.6650 N.am      6 SEP2        0.0000 
     36 O         -23.1895   -7.3675    4.7065 O.2       1 ALC1        0.0000 
     37 O         -23.3030   -6.0020    4.9620 O.2       9 ALL1        0.0000 
     38 O         -23.0760   -8.7330    4.4510 O.2       5 ALP1        0.0000 
     39 N         -25.1835   -6.4005    8.0080 N.am      2 SEC2        0.0000 
     40 N         -24.6950   -6.6370    6.6100 N.am     10 SEL2        0.0000 
     41 N         -25.6720   -6.1640    9.4060 N.am      6 SEP2        0.0000 
     42 CA        -24.9145   -3.6370    4.4260 C.3       4 GLC5        0.0000 
     43 CA        -23.6730   -3.4220    5.7740 C.3      12 GLL5        0.0000 
     44 CA        -26.1560   -3.8520    3.0780 C.3       8 GLP5        0.0000 
     45 CA        -22.1485   -3.8275    7.3595 C.3       4 GLC5        0.0000 
     46 CA        -20.6240   -4.2330    8.9450 C.3       8 GLP5        0.0000 
     47 CA        -25.5115   -1.9380    5.2395 C.3       4 GLC5        0.0000 
     48 CA        -24.4470   -1.3300    7.0320 C.3      12 GLL5        0.0000 
     49 CA        -26.5760   -2.5460    3.4470 C.3       8 GLP5        0.0000 
     50 CA        -22.3215   -1.6220    7.6445 C.3       4 GLC5        0.0000 
     51 CA        -20.1960   -1.9140    8.2570 C.3       8 GLP5        0.0000 
     52 N         -24.5955   -3.8685   10.2545 N.am      2 SEC2        0.0000 
     53 N         -24.5100   -2.9970    8.8770 N.am     10 SEL2        0.0000 
     54 N         -24.6810   -4.7400   11.6320 N.am      6 SEP2        0.0000 
     55 O         -27.8560   -2.0865    9.7070 O.2       1 ALC1        0.0000 
     56 O         -27.2470   -1.4340    8.8780 O.2       9 ALL1        0.0000 
     57 O         -28.4650   -2.7390   10.5360 O.2       5 ALP1        0.0000 
     58 O         -27.6260   -1.3420   10.4675 O.2       1 ALC1        0.0000 
     59 O         -28.0050   -1.2500   12.0570 O.2       5 ALP1        0.0000 
     60 CA        -24.0495   -0.3050   10.1400 C.3       4 GLC5        0.0000 
     61 CA        -25.7170    0.4320    8.9380 C.3      12 GLL5        0.0000 
     62 CA        -22.3820   -1.0420   11.3420 C.3       8 GLP5        0.0000 
     63 O         -24.3890    2.2460    9.5485 O.2       1 ALC1        0.0000 
     64 O         -24.4270    0.8950    9.3190 O.2       9 ALL1        0.0000 
     65 O         -24.3510    3.5970    9.7780 O.2       5 ALP1        0.0000 
     66 CA        -27.8720    2.0905   11.3035 C.3       4 GLC5        0.0000 
     67 CA        -26.7290    1.1320    9.8430 C.3      12 GLL5        0.0000 
     68 CA        -29.0150    3.0490   12.7640 C.3       8 GLP5        0.0000 
     69 CA        -25.6010    2.4555   11.0095 C.3       4 GLC5        0.0000 
     70 CA        -24.4730    3.7790   12.1760 C.3       8 GLP5        0.0000 
     71 CA        -28.1215    2.4565    9.3000 C.3       4 GLC5        0.0000 
     72 CA        -29.5140    3.7810    8.7570 C.3       8 GLP5        0.0000 
     73 CA        -28.7525    0.6060    9.9820 C.3       4 GLC5        0.0000 
     74 CA        -30.7760    0.0800   10.1210 C.3       8 GLP5        0.0000 
     75 N         -26.1135    1.9060   11.8905 N.am      2 SEC2        0.0000 
     76 N         -26.5340    0.7240   11.1870 N.am     10 SEL2        0.0000 
     77 N         -25.6930    3.0880   12.5940 N.am      6 SEP2        0.0000 
     78 O         -27.2695   -0.2630   11.6220 O.2       1 ALC1        0.0000 
     79 O         -26.5340    0.7240   11.1870 O.2       9 ALL1        0.0000 
     80 CA        -26.5975   -3.3468    8.5335 C.3       4 GLC5        0.0000 
     81 CA        -25.8950   -1.0860    9.0850 C.3      12 GLL5        0.0000 
     82 CA        -27.6350   -5.1320    8.4670 C.3       8 GLP5        0.0000 
     83 CA        -24.9130   -1.9912   10.4915 C.3       4 GLC5        0.0000 
     84 CA        -25.2250   -2.0370    8.1150 C.3      12 GLL5        0.0000 
     85 CA        -24.2660   -2.4210   12.3830 C.3       8 GLP5        0.0000 
@<TRIPOS>BOND
@<TRIPOS>SUBSTRUCTURE
     1 ALC1       36 GROUP        1 X    ALC  0     ROOT ALC X 1
     2 SEC2        1 GROUP        1 X    SEC  0     **** SEC X 2
     3 LYC4        6 GROUP        1 X    LYC  0     **** LYC X 4
     4 GLC5       14 GROUP        1 X    GLC  0     **** GLC X 6
     5 ALP1       38 GROUP        1 Y    ALP  0     ROOT ALP Y 8
     6 SEP2        3 GROUP        1 Y    SEP  0     **** SEP Y 9
     7 LYP4        8 GROUP        1 Y    LYP  0     **** LYP Y 11
     8 GLP5       16 GROUP        1 Y    GLP  0     **** GLP Y 13
     9 ALL1       37 GROUP        1 Z    ALL  0     ROOT ALL Z 15
    10 SEL2        2 GROUP        1 Z    SEL  0     **** SEL Z 16
    11 LYL4        7 GROUP        1 Z    LYL  0     **** LYL Z 18
    12 GLL5       15 GROUP        1 Z    GLL  0     **** GLL Z 20
@<TRIPOS>SET

