#    Name: 1w19_T1P_1_ligand
#    Modification time : Tue Mar 25 08:26:39 2014

@<TRIPOS>MOLECULE
1w19_T1P_1_ligand
   48    49     1     0     0
SMALL
NO_CHARGES


@<TRIPOS>ATOM
      1 O33       -17.4770    0.5530    1.1680 O.co2     1 T1P1163     0.0000 
      2 P         -18.9660    0.4110    0.8970 P.3       1 T1P1163     0.0000 
      3 O31       -19.7570    1.6730    0.9800 O.co2     1 T1P1163     0.0000 
      4 O32       -19.3520   -0.5050   -0.2010 O.co2     1 T1P1163     0.0000 
      5 O27       -19.5000   -0.4350    2.1890 O.3       1 T1P1163     0.0000 
      6 C17       -19.3100   -1.8580    2.2550 C.3       1 T1P1163     0.0000 
      7 C16       -20.0290   -2.4320    3.4600 C.3       1 T1P1163     0.0000 
      8 C15       -21.4850   -2.2260    3.1370 C.3       1 T1P1163     0.0000 
      9 N5        -22.3480   -2.5010    4.2550 N.am      1 T1P1163     0.0000 
     10 C6        -22.9420   -1.6340    5.1010 C.2       1 T1P1163     0.0000 
     11 O6        -22.7710   -0.3700    5.0140 O.2       1 T1P1163     0.0000 
     12 C9        -22.7880   -3.6730    4.6460 C.2       1 T1P1163     0.0000 
     13 C4        -22.6440   -5.0880    4.2710 C.2       1 T1P1163     0.0000 
     14 O4        -21.9240   -5.4200    3.3230 O.2       1 T1P1163     0.0000 
     15 N3        -23.3030   -6.0020    4.9620 N.am      1 T1P1163     0.0000 
     16 C2        -24.1040   -5.7250    6.0000 C.2       1 T1P1163     0.0000 
     17 O2        -24.6950   -6.6370    6.6100 O.2       1 T1P1163     0.0000 
     18 C8        -23.6730   -3.4220    5.7740 C.2       1 T1P1163     0.0000 
     19 N1        -24.3060   -4.4980    6.4280 N.am      1 T1P1163     0.0000 
     20 N7        -23.7580   -2.1330    6.0360 N.am      1 T1P1163     0.0000 
     21 C10       -24.4470   -1.3300    7.0320 C.3       1 T1P1163     0.0000 
     22 C11       -25.2250   -2.0370    8.1150 C.3       1 T1P1163     0.0000 
     23 O19       -24.5100   -2.9970    8.8770 O.3       1 T1P1163     0.0000 
     24 C12       -25.8950   -1.0860    9.0850 C.3       1 T1P1163     0.0000 
     25 O21       -27.2470   -1.4340    8.8780 O.3       1 T1P1163     0.0000 
     26 C13       -25.7170    0.4320    8.9380 C.3       1 T1P1163     0.0000 
     27 O23       -24.4270    0.8950    9.3190 O.3       1 T1P1163     0.0000 
     28 C14       -26.7290    1.1320    9.8430 C.3       1 T1P1163     0.0000 
     29 O26       -26.5340    0.7240   11.1870 O.3       1 T1P1163     0.0000 
     30 H         -18.2448   -2.1150    2.3382 H         1 T1P1163     0.0000 
     31 H         -19.6999   -2.3548    1.3557 H         1 T1P1163     0.0000 
     32 H         -19.7648   -1.8831    4.3319 H         1 T1P1163     0.0000 
     33 H         -19.8150   -3.4704    3.5459 H         1 T1P1163     0.0000 
     34 H         -21.7419   -2.8730    2.2728 H         1 T1P1163     0.0000 
     35 H         -21.6164   -1.1816    2.7857 H         1 T1P1163     0.0000 
     36 H         -23.1946   -7.0342    4.6795 H         1 T1P1163     0.0000 
     37 H         -24.9168   -4.2796    7.2347 H         1 T1P1163     0.0000 
     38 H         -25.1557   -0.6105    6.5180 H         1 T1P1163     0.0000 
     39 H         -23.7086   -0.6369    7.5403 H         1 T1P1163     0.0000 
     40 H         -26.0847   -2.5703    7.6021 H         1 T1P1163     0.0000 
     41 H         -25.6181   -1.3925   10.0953 H         1 T1P1163     0.0000 
     42 H         -25.9573    0.7080    7.9220 H         1 T1P1163     0.0000 
     43 H         -27.7324    0.8780    9.4775 H         1 T1P1163     0.0000 
     44 H         -26.5934    2.2140    9.7178 H         1 T1P1163     0.0000 
     45 H         -23.5718   -2.6527    8.9122 H         1 T1P1163     0.0000 
     46 H         -27.6472   -1.4731    9.7936 H         1 T1P1163     0.0000 
     47 H         -24.5256    1.8855    9.4150 H         1 T1P1163     0.0000 
     48 H         -27.1735   -0.0327   11.3230 H         1 T1P1163     0.0000 
@<TRIPOS>BOND
     1    2    1 ar   
     2    3    2 ar   
     3    4    2 ar   
     4    5    2 1    
     5    6    5 1    
     6    7    6 1    
     7   30    6 1    
     8   31    6 1    
     9    8    7 1    
    10   32    7 1    
    11   33    7 1    
    12    9    8 1    
    13   34    8 1    
    14   35    8 1    
    15   10    9 am   
    16   12    9 1    
    17   11   10 2    
    18   20   10 am   
    19   13   12 1    
    20   18   12 2    
    21   14   13 2    
    22   15   13 1    
    23   16   15 1    
    24   36   15 1    
    25   17   16 2    
    26   19   16 1    
    27   19   18 1    
    28   20   18 1    
    29   37   19 1    
    30   21   20 1    
    31   22   21 1    
    32   38   21 1    
    33   39   21 1    
    34   23   22 1    
    35   24   22 1    
    36   40   22 1    
    37   45   23 1    
    38   25   24 1    
    39   26   24 1    
    40   41   24 1    
    41   46   25 1    
    42   27   26 1    
    43   28   26 1    
    44   42   26 1    
    45   47   27 1    
    46   29   28 1    
    47   43   28 1    
    48   44   28 1    
    49   48   29 1    
@<TRIPOS>SUBSTRUCTURE
     1 T1P1163     1 GROUP   
@<TRIPOS>SET

