#    Name: 1drf_FOL_1_INTS_M
#    Modification time : Mon Mar 24 22:23:52 2014

@<TRIPOS>MOLECULE
1drf_FOL_1_INTS_M
   51     0    12     0     0
SMALL
NO_CHARGES


@<TRIPOS>ATOM
      1 O          27.9115   12.4880   -7.2860 O.2       1 ALC1        0.0000 
      2 O          27.1130   12.2700   -6.2180 O.2       9 ALL1        0.0000 
      3 O          28.7100   12.7060   -8.3540 O.2       5 ALP1        0.0000 
      4 N          29.7600   12.8815   -6.0920 N.am      2 SEC2        0.0000 
      5 N          28.9810   12.7000   -4.9320 N.am     10 SEL2        0.0000 
      6 N          30.5390   13.0630   -7.2520 N.am      6 SEP2        0.0000 
      7 CA         28.9950   11.0800   -4.1435 C.3       4 GLC5        0.0000 
      8 CA         28.7380   12.6730   -2.6350 C.3      12 GLL5        0.0000 
      9 CA         29.2520    9.4870   -5.6520 C.3       8 GLP5        0.0000 
     10 CA         25.2300   12.7370    0.4690 C.3       4 GLC5        0.0000 
     11 CA         27.0430   12.3410   -0.5410 C.3      12 GLL5        0.0000 
     12 CA         23.4170   13.1330    1.4790 C.3       8 GLP5        0.0000 
     13 CA         26.2280   10.9610   -3.2800 C.3       4 GLC5        0.0000 
     14 CA         27.4920   12.5140   -2.8190 C.3      12 GLL5        0.0000 
     15 CA         24.9640    9.4080   -3.7410 C.3       8 GLP5        0.0000 
     16 CA         28.2725   12.6790    3.0180 C.3       4 GLC5        0.0000 
     17 CA         28.9900   12.5250    1.1070 C.3      12 GLL5        0.0000 
     18 CA         27.5550   12.8330    4.9290 C.3       8 GLP5        0.0000 
     19 CA         33.8835   17.1540    2.1335 C.3       4 GLC5        0.0000 
     20 CA         32.3650   16.4270    1.0490 C.3      12 GLL5        0.0000 
     21 CA         35.4020   17.8810    3.2180 C.3       8 GLP5        0.0000 
     22 N          33.3280   20.3100    1.2270 N.am      2 SEC2        0.0000 
     23 N          33.0810   19.0850    0.5270 N.am     10 SEL2        0.0000 
     24 N          33.5750   21.5350    1.9270 N.am      6 SEP2        0.0000 
     25 CA         32.0695   18.5280   -3.4640 C.3       4 GLC5        0.0000 
     26 CA         31.7170   20.3840   -3.0920 C.3      12 GLL5        0.0000 
     27 CA         32.4220   16.6720   -3.8360 C.3       8 GLP5        0.0000 
     28 CA         32.7555   19.5855   -5.0465 C.3       4 GLC5        0.0000 
     29 CA         32.3170   21.4470   -4.1090 C.3      12 GLL5        0.0000 
     30 CA         33.1940   17.7240   -5.9840 C.3       8 GLP5        0.0000 
     31 NZ         28.1990   22.1265   -1.3470 N.4       3 LYC4        0.0000 
     32 NZ         30.0310   22.3750   -1.2720 N.4      11 LYL4        0.0000 
     33 NZ         26.3400   22.9000   -0.9020 N.4       7 LYP4        0.0000 
     34 N          28.7720   22.9605   -1.0750 N.am      2 SEC2        0.0000 
     35 N          30.0310   22.3750   -1.2720 N.am     10 SEL2        0.0000 
     36 N          27.5130   23.5460   -0.8780 N.am      6 SEP2        0.0000 
     37 NZ         27.5970   21.1930   -1.6325 N.4       3 LYC4        0.0000 
     38 NZ         28.8850   20.7070   -1.8160 N.4      11 LYL4        0.0000 
     39 N          27.5970   21.1930   -1.6325 N.am      2 SEC2        0.0000 
     40 N          28.8850   20.7070   -1.8160 N.am     10 SEL2        0.0000 
     41 N          26.3090   21.6790   -1.4490 N.am      6 SEP2        0.0000 
     42 N          28.1990   22.1265   -1.3470 N.am      2 SEC2        0.0000 
     43 CA         31.4423   16.8150    2.4815 C.3       4 GLC5        0.0000 
     44 CA         31.5360   17.2770    0.3030 C.3      12 GLL5        0.0000 
     45 CA         30.9340   16.7780    4.2870 C.3       8 GLP5        0.0000 
     46 CA         31.1692   15.8315    2.7567 C.3       4 GLC5        0.0000 
     47 CA         32.0210   15.1060    1.4090 C.3      12 GLL5        0.0000 
     48 CA         30.5297   16.4823    2.1822 C.3       4 GLC5        0.0000 
     49 CA         29.9370   15.5370    0.2210 C.3      12 GLL5        0.0000 
     50 CA         30.2140   21.4183   -4.4692 C.3       4 GLC5        0.0000 
     51 CA         28.4110   21.9210   -5.3380 C.3       8 GLP5        0.0000 
@<TRIPOS>BOND
@<TRIPOS>SUBSTRUCTURE
     1 ALC1        1 GROUP        1 X    ALC  0     ROOT ALC X 1
     2 SEC2        4 GROUP        1 X    SEC  0     **** SEC X 2
     3 LYC4       31 GROUP        1 X    LYC  0     **** LYC X 4
     4 GLC5        7 GROUP        1 X    GLC  0     **** GLC X 6
     5 ALP1        3 GROUP        1 Y    ALP  0     ROOT ALP Y 8
     6 SEP2        6 GROUP        1 Y    SEP  0     **** SEP Y 9
     7 LYP4       33 GROUP        1 Y    LYP  0     **** LYP Y 11
     8 GLP5        9 GROUP        1 Y    GLP  0     **** GLP Y 13
     9 ALL1        2 GROUP        1 Z    ALL  0     ROOT ALL Z 15
    10 SEL2        5 GROUP        1 Z    SEL  0     **** SEL Z 16
    11 LYL4       32 GROUP        1 Z    LYL  0     **** LYL Z 18
    12 GLL5        8 GROUP        1 Z    GLL  0     **** GLL Z 20
@<TRIPOS>SET

