#    Name: 1drf_FOL_1_ligand
#    Modification time : Mon Mar 24 22:23:53 2014

@<TRIPOS>MOLECULE
1drf_FOL_1_ligand
   49    51     1     0     0
SMALL
NO_CHARGES


@<TRIPOS>ATOM
      1 N1         26.7790   12.3250   -3.9960 N.pl3     1 FOL187      0.0000 
      2 C2         27.6840   12.4530   -5.0330 C.2       1 FOL187      0.0000 
      3 NA2        27.1130   12.2700   -6.2180 N.pl3     1 FOL187      0.0000 
      4 N3         28.9810   12.7000   -4.9320 N.2       1 FOL187      0.0000 
      5 C4         29.7010   12.8290   -3.7910 C.2       1 FOL187      0.0000 
      6 O4         30.9150   13.0540   -3.7040 O.2       1 FOL187      0.0000 
      7 C4A        28.7380   12.6730   -2.6350 C.ar      1 FOL187      0.0000 
      8 N5         29.2680   12.6240   -1.3690 N.ar      1 FOL187      0.0000 
      9 C6         28.4980   12.4620   -0.3420 C.ar      1 FOL187      0.0000 
     10 C7         27.0430   12.3410   -0.5410 C.ar      1 FOL187      0.0000 
     11 N8         26.5520   12.2620   -1.7680 N.ar      1 FOL187      0.0000 
     12 C8A        27.4920   12.5140   -2.8190 C.ar      1 FOL187      0.0000 
     13 C9         28.9900   12.5250    1.1070 C.3       1 FOL187      0.0000 
     14 N10        30.3320   13.2350    1.3900 N.pl3     1 FOL187      0.0000 
     15 C11        31.5360   17.2770    0.3030 C.ar      1 FOL187      0.0000 
     16 C12        32.3650   16.4270    1.0490 C.ar      1 FOL187      0.0000 
     17 C13        32.0210   15.1060    1.4090 C.ar      1 FOL187      0.0000 
     18 C14        30.7880   14.6640    1.0440 C.ar      1 FOL187      0.0000 
     19 C15        29.9370   15.5370    0.2210 C.ar      1 FOL187      0.0000 
     20 C16        30.3140   16.8360   -0.0660 C.ar      1 FOL187      0.0000 
     21 C          31.9610   18.7180   -0.0800 C.2       1 FOL187      0.0000 
     22 O          33.0810   19.0850    0.5270 O.2       1 FOL187      0.0000 
     23 N          31.1630   19.3840   -1.0100 N.am      1 FOL187      0.0000 
     24 CA         31.4120   20.7660   -1.7380 C.3       1 FOL187      0.0000 
     25 CB         31.7170   20.3840   -3.0920 C.3       1 FOL187      0.0000 
     26 CG         32.3170   21.4470   -4.1090 C.3       1 FOL187      0.0000 
     27 CD         33.4940   21.3720   -5.3010 C.2       1 FOL187      0.0000 
     28 OE1        33.6260   21.7680   -6.5840 O.co2     1 FOL187      0.0000 
     29 OE2        34.5030   20.7030   -4.6610 O.co2     1 FOL187      0.0000 
     30 CT         30.0720   21.2440   -1.6320 C.2       1 FOL187      0.0000 
     31 O1         30.0310   22.3750   -1.2720 O.co2     1 FOL187      0.0000 
     32 O2         28.8850   20.7070   -1.8160 O.co2     1 FOL187      0.0000 
     33 H          25.8590   12.1451   -4.0689 H         1 FOL187      0.0000 
     34 H          26.1313   12.0799   -6.2087 H         1 FOL187      0.0000 
     35 H          27.7164   12.3388   -7.0125 H         1 FOL187      0.0000 
     36 H          26.4699   12.3239    0.3099 H         1 FOL187      0.0000 
     37 H          29.0589   11.4814    1.5054 H         1 FOL187      0.0000 
     38 H          28.2001   13.0150    1.7304 H         1 FOL187      0.0000 
     39 H          31.0474   12.6470    1.9007 H         1 FOL187      0.0000 
     40 H          33.3002   16.7920    1.3610 H         1 FOL187      0.0000 
     41 H          32.6807   14.5328    1.9165 H         1 FOL187      0.0000 
     42 H          29.0585   15.1409   -0.1271 H         1 FOL187      0.0000 
     43 H          29.6514   17.4569   -0.5625 H         1 FOL187      0.0000 
     44 H          30.2344   18.9499   -1.3178 H         1 FOL187      0.0000 
     45 H          32.0949   21.2666   -1.2290 H         1 FOL187      0.0000 
     46 H          30.8000   19.9588   -3.6105 H         1 FOL187      0.0000 
     47 H          32.4402   19.5081   -3.1139 H         1 FOL187      0.0000 
     48 H          32.6315   22.3892   -3.4674 H         1 FOL187      0.0000 
     49 H          31.3968   21.9464   -4.6587 H         1 FOL187      0.0000 
@<TRIPOS>BOND
     1    2    1 1    
     2   12    1 1    
     3   33    1 1    
     4    3    2 1    
     5    4    2 2    
     6   34    3 1    
     7   35    3 1    
     8    5    4 1    
     9    6    5 2    
    10    7    5 1    
    11    8    7 ar   
    12   12    7 ar   
    13    9    8 ar   
    14   10    9 ar   
    15   13    9 1    
    16   11   10 ar   
    17   36   10 1    
    18   12   11 ar   
    19   14   13 1    
    20   37   13 1    
    21   38   13 1    
    22   18   14 1    
    23   39   14 1    
    24   16   15 ar   
    25   20   15 ar   
    26   21   15 1    
    27   17   16 ar   
    28   40   16 1    
    29   18   17 ar   
    30   41   17 1    
    31   19   18 ar   
    32   20   19 ar   
    33   42   19 1    
    34   43   20 1    
    35   22   21 2    
    36   23   21 am   
    37   24   23 1    
    38   44   23 1    
    39   25   24 1    
    40   30   24 1    
    41   45   24 1    
    42   26   25 1    
    43   46   25 1    
    44   47   25 1    
    45   27   26 1    
    46   48   26 1    
    47   49   26 1    
    48   28   27 ar   
    49   29   27 ar   
    50   31   30 ar   
    51   32   30 ar   
@<TRIPOS>SUBSTRUCTURE
     1 FOL187      1 GROUP   
@<TRIPOS>SET

