#    Name: 2oo8_RAJ_1_INTS_M
#    Modification time : Mon Mar 24 17:42:47 2014

@<TRIPOS>MOLECULE
2oo8_RAJ_1_INTS_M
  109     0    12     0     0
SMALL
NO_CHARGES


@<TRIPOS>ATOM
      1 CA         47.1990    5.1340   71.1520 C.3       4 GLC5        0.0000 
      2 CA         47.7220    4.8050   69.1940 C.3      12 GLL5        0.0000 
      3 CA         46.6760    5.4630   73.1100 C.3       8 GLP5        0.0000 
      4 OD1        49.4280    6.4215   68.8395 O.co2     3 ASC3        0.0000 
      5 OD1        48.1310    5.5200   67.9610 O.co2    11 ASL3        0.0000 
      6 OD1        50.7250    7.3230   69.7180 O.co2     7 ASP3        0.0000 
      7 CA         50.8555    5.6815   69.4010 C.3       4 GLC5        0.0000 
      8 CA         49.5770    5.3540   67.6860 C.3      12 GLL5        0.0000 
      9 CA         52.1340    6.0090   71.1160 C.3       8 GLP5        0.0000 
     10 CA         51.6355    0.9530   68.3595 C.3       4 GLC5        0.0000 
     11 CA         52.3400    2.6060   68.9780 C.3      12 GLL5        0.0000 
     12 CA         50.9310   -0.7000   67.7410 C.3       8 GLP5        0.0000 
     13 CA         56.7415    7.4670   70.5975 C.3       4 GLC5        0.0000 
     14 CA         55.4290    6.4110   69.7890 C.3      12 GLL5        0.0000 
     15 CA         58.0540    8.5230   71.4060 C.3       8 GLP5        0.0000 
     16 CA         57.5050    3.1425   70.6470 C.3       4 GLC5        0.0000 
     17 CA         56.7500    4.6740   70.0060 C.3      12 GLL5        0.0000 
     18 CA         58.2600    1.6110   71.2880 C.3       8 GLP5        0.0000 
     19 CA         57.4020    6.5985   70.7060 C.3       4 GLC5        0.0000 
     20 CA         57.9305    6.9560   67.7525 C.3       4 GLC5        0.0000 
     21 CA         56.3060    5.5180   68.0370 C.3      12 GLL5        0.0000 
     22 CA         59.5550    8.3940   67.4680 C.3       8 GLP5        0.0000 
     23 CA         55.2125    4.2820   71.7070 C.3       4 GLC5        0.0000 
     24 CA         54.4080    3.2650   70.0610 C.3      12 GLL5        0.0000 
     25 CA         56.0170    5.2990   73.3530 C.3       8 GLP5        0.0000 
     26 O          52.0950    0.4325   70.4715 O.2       1 ALC1        0.0000 
     27 O          53.1440    1.3800   70.8590 O.2       9 ALL1        0.0000 
     28 O          51.0460   -0.5150   70.0840 O.2       5 ALP1        0.0000 
     29 N          53.9260    3.7180   72.7695 N.am      2 SEC2        0.0000 
     30 N          54.1970    2.2520   72.6770 N.am     10 SEL2        0.0000 
     31 N          53.6550    5.1840   72.8620 N.am      6 SEP2        0.0000 
     32 CA         55.2470    0.3550   71.9610 C.3       4 GLC5        0.0000 
     33 CA         53.3900    0.0110   72.8860 C.3      12 GLL5        0.0000 
     34 CA         57.1040    0.6990   71.0360 C.3       8 GLP5        0.0000 
     35 CA         54.0595   -1.2735   70.3495 C.3       4 GLC5        0.0000 
     36 CA         53.0070   -1.1710   72.2350 C.3      12 GLL5        0.0000 
     37 CA         55.1120   -1.3760   68.4640 C.3       8 GLP5        0.0000 
     38 CA         52.0480   -4.1455   76.9240 C.3       4 GLC5        0.0000 
     39 CA         52.8350   -3.6500   75.1600 C.3      12 GLL5        0.0000 
     40 CA         51.2610   -4.6410   78.6880 C.3       8 GLP5        0.0000 
     41 CA         54.0660   -4.2125   76.7735 C.3       4 GLC5        0.0000 
     42 CA         55.2970   -4.7750   78.3870 C.3       8 GLP5        0.0000 
     43 CA         52.9885   -5.8520   75.4830 C.3       4 GLC5        0.0000 
     44 CA         53.1420   -8.0540   75.8060 C.3       8 GLP5        0.0000 
     45 CA         51.3050   -4.6540   74.2495 C.3       4 GLC5        0.0000 
     46 CA         49.7750   -5.6580   73.3390 C.3       8 GLP5        0.0000 
     47 CA         49.9345   -2.2515   77.6535 C.3       4 GLC5        0.0000 
     48 CA         50.5910   -0.5390   77.9610 C.3      12 GLL5        0.0000 
     49 CA         49.2780   -3.9640   77.3460 C.3       8 GLP5        0.0000 
     50 CA         55.9405    0.4210   78.3965 C.3       4 GLC5        0.0000 
     51 CA         54.5540   -1.1730   79.0750 C.3      12 GLL5        0.0000 
     52 CA         57.3270    2.0150   77.7180 C.3       8 GLP5        0.0000 
     53 CA         58.1605   -0.3440   80.7175 C.3       4 GLC5        0.0000 
     54 CA         56.2300   -1.3130   80.7790 C.3      12 GLL5        0.0000 
     55 CA         60.0910    0.6250   80.6560 C.3       8 GLP5        0.0000 
     56 N          58.5910   -1.6720   80.2440 N.am      2 SEC2        0.0000 
     57 N          57.1410   -1.5040   79.8410 N.am     10 SEL2        0.0000 
     58 N          60.0410   -1.8400   80.6470 N.am      6 SEP2        0.0000 
     59 CA         56.0480   -3.1440   78.4745 C.3       4 GLC5        0.0000 
     60 CA         56.7990   -1.5130   78.5620 C.3      12 GLL5        0.0000 
     61 CA         56.9235   -1.3975   76.7145 C.3       4 GLC5        0.0000 
     62 CA         57.0480   -1.2820   74.8670 C.3       8 GLP5        0.0000 
     63 CA         58.4350   -2.7415   79.0335 C.3       4 GLC5        0.0000 
     64 CA         60.0710   -3.9700   79.5050 C.3       8 GLP5        0.0000 
     65 CA         58.4450   -0.4440   79.6090 C.3       4 GLC5        0.0000 
     66 CA         57.0630    0.2510   78.1400 C.3       4 GLC5        0.0000 
     67 CA         53.9128    2.0242   68.0403 C.3       4 GLC5        0.0000 
     68 CA         52.5050    3.6470   68.0510 C.3      12 GLL5        0.0000 
     69 CA         55.4030    0.9220   67.5660 C.3       8 GLP5        0.0000 
     70 CA         52.2782    4.5678   69.8152 C.3       4 GLC5        0.0000 
     71 CA         53.5265    3.7624   65.8784 C.3       4 GLC5        0.0000 
     72 CA         54.2560    3.3900   63.9430 C.3       8 GLP5        0.0000 
     73 CA         54.7490    2.6640   68.1000 C.3       4 GLC5        0.0000 
     74 CA         53.6120    4.5050   68.1330 C.3      12 GLL5        0.0000 
     75 CA         53.1145    5.2075   69.8750 C.3       4 GLC5        0.0000 
     76 CA         54.5780    4.3070   69.1350 C.3      12 GLL5        0.0000 
     77 CA         55.3413    7.7102   69.7045 C.3       4 GLC5        0.0000 
     78 CA         55.0680    9.5910   69.8920 C.3       8 GLP5        0.0000 
     79 CA         53.8743    5.9192   70.3165 C.3       4 GLC5        0.0000 
     80 CA         56.0996    5.2754   71.5572 C.3       4 GLC5        0.0000 
     81 CA         57.1972    4.3573   67.4856 C.3       4 GLC5        0.0000 
     82 CA         55.8000    5.2480   69.2450 C.3      12 GLL5        0.0000 
     83 CA         58.1040    3.4750   66.1400 C.3       8 GLP5        0.0000 
     84 CA         55.6376    6.7174   67.2910 C.3       4 GLC5        0.0000 
     85 CA         55.3150    7.7610   65.8050 C.3       8 GLP5        0.0000 
     86 CA         54.6225    1.8810   68.7990 C.3       4 GLC5        0.0000 
     87 CA         55.4730    1.7695   70.5340 C.3       4 GLC5        0.0000 
     88 CA         53.2760    2.4150   70.0030 C.3      12 GLL5        0.0000 
     89 CA         52.9880    4.4245   70.5740 C.3       4 GLC5        0.0000 
     90 CA         54.9395   -2.3850   72.3533 C.3       4 GLC5        0.0000 
     91 CA         52.8210   -2.3450   72.9760 C.3      12 GLL5        0.0000 
     92 CA         56.9650   -3.0120   72.1010 C.3       8 GLP5        0.0000 
     93 CA         50.9750   -2.3615   73.0401 C.3       4 GLC5        0.0000 
     94 CA         48.9730   -2.6730   72.5930 C.3       8 GLP5        0.0000 
     95 CA         54.9663   -2.8925   74.6957 C.3       4 GLC5        0.0000 
     96 CA         53.0400   -2.3420   74.3690 C.3      12 GLL5        0.0000 
     97 CA         56.9950   -2.7890   74.6270 C.3       8 GLP5        0.0000 
     98 CA         55.2549   -0.9293   74.5825 C.3       4 GLC5        0.0000 
     99 CA         53.4220   -1.1600   75.0220 C.3      12 GLL5        0.0000 
    100 CA         52.1377   -2.8028   78.3468 C.3       4 GLC5        0.0000 
    101 CA         52.8050   -0.9480   77.3320 C.3      12 GLL5        0.0000 
    102 CA         51.4313   -2.6520   79.0902 C.3       4 GLC5        0.0000 
    103 CA         52.2660   -0.7670   79.6760 C.3      12 GLL5        0.0000 
    104 CA         54.5930   -2.9260   78.6320 C.3       4 GLC5        0.0000 
    105 CA         53.2240   -0.9810   78.6790 C.3      12 GLL5        0.0000 
    106 CA         55.4297   -2.9985   79.4933 C.3       4 GLC5        0.0000 
    107 CA         54.8950   -1.1310   80.4200 C.3      12 GLL5        0.0000 
    108 CA         56.1382    0.7960   80.3132 C.3       4 GLC5        0.0000 
    109 CA         56.7140    2.8140   80.0270 C.3       8 GLP5        0.0000 
@<TRIPOS>BOND
@<TRIPOS>SUBSTRUCTURE
     1 ALC1       26 GROUP        1 X    ALC  0     ROOT ALC X 1
     2 SEC2       29 GROUP        1 X    SEC  0     **** SEC X 2
     3 ASC3        4 GROUP        1 X    ASC  0     **** ASC X 3
     4 GLC5        1 GROUP        1 X    GLC  0     **** GLC X 6
     5 ALP1       28 GROUP        1 Y    ALP  0     ROOT ALP Y 8
     6 SEP2       31 GROUP        1 Y    SEP  0     **** SEP Y 9
     7 ASP3        6 GROUP        1 Y    ASP  0     **** ASP Y 10
     8 GLP5        3 GROUP        1 Y    GLP  0     **** GLP Y 13
     9 ALL1       27 GROUP        1 Z    ALL  0     ROOT ALL Z 15
    10 SEL2       30 GROUP        1 Z    SEL  0     **** SEL Z 16
    11 ASL3        5 GROUP        1 Z    ASL  0     **** ASL Z 17
    12 GLL5        2 GROUP        1 Z    GLL  0     **** GLL Z 20
@<TRIPOS>SET

