#    Name: 2oo8_RAJ_1_ligand
#    Modification time : Mon Mar 24 17:42:47 2014

@<TRIPOS>MOLECULE
2oo8_RAJ_1_ligand
   69    72     1     0     0
SMALL
NO_CHARGES


@<TRIPOS>ATOM
      1 C28        47.7220    4.8050   69.1940 C.3       1 RAJ1        0.0000 
      2 N6         48.1310    5.5200   67.9610 N.4       1 RAJ1        0.0000 
      3 C29        47.3220    5.1350   66.7830 C.3       1 RAJ1        0.0000 
      4 C27        49.5770    5.3540   67.6860 C.3       1 RAJ1        0.0000 
      5 C26        50.0420    3.9000   67.5080 C.3       1 RAJ1        0.0000 
      6 C25        51.4590    3.8820   66.9380 C.3       1 RAJ1        0.0000 
      7 C20        52.5050    3.6470   68.0510 C.ar      1 RAJ1        0.0000 
      8 C19        52.3400    2.6060   68.9780 C.ar      1 RAJ1        0.0000 
      9 C21        53.6120    4.5050   68.1330 C.ar      1 RAJ1        0.0000 
     10 C22        54.5780    4.3070   69.1350 C.ar      1 RAJ1        0.0000 
     11 C24        55.8000    5.2480   69.2450 C.3       1 RAJ1        0.0000 
     12 F2         55.4290    6.4110   69.7890 F         1 RAJ1        0.0000 
     13 F3         56.7500    4.6740   70.0060 F         1 RAJ1        0.0000 
     14 F1         56.3060    5.5180   68.0370 F         1 RAJ1        0.0000 
     15 C23        54.4080    3.2650   70.0610 C.ar      1 RAJ1        0.0000 
     16 C18        53.2760    2.4150   70.0030 C.ar      1 RAJ1        0.0000 
     17 N5         53.1440    1.3800   70.8590 N.am      1 RAJ1        0.0000 
     18 C17        53.6190    1.3270   72.1150 C.2       1 RAJ1        0.0000 
     19 O1         54.1970    2.2520   72.6770 O.2       1 RAJ1        0.0000 
     20 C12        53.3900    0.0110   72.8860 C.ar      1 RAJ1        0.0000 
     21 C11        53.6130    0.0030   74.2620 C.ar      1 RAJ1        0.0000 
     22 C13        53.0070   -1.1710   72.2350 C.ar      1 RAJ1        0.0000 
     23 C14        52.8210   -2.3450   72.9760 C.ar      1 RAJ1        0.0000 
     24 C15        53.0400   -2.3420   74.3690 C.ar      1 RAJ1        0.0000 
     25 C16        52.8350   -3.6500   75.1600 C.3       1 RAJ1        0.0000 
     26 C10        53.4220   -1.1600   75.0220 C.ar      1 RAJ1        0.0000 
     27 N4         53.6760   -1.1230   76.3470 N.pl3     1 RAJ1        0.0000 
     28 C9         52.8050   -0.9480   77.3320 C.ar      1 RAJ1        0.0000 
     29 N3         51.5180   -0.7250   77.0310 N.ar      1 RAJ1        0.0000 
     30 C8         50.5910   -0.5390   77.9610 C.ar      1 RAJ1        0.0000 
     31 C7         50.9370   -0.5590   79.3090 C.ar      1 RAJ1        0.0000 
     32 C6         52.2660   -0.7670   79.6760 C.ar      1 RAJ1        0.0000 
     33 C5         53.2240   -0.9810   78.6790 C.ar      1 RAJ1        0.0000 
     34 C3         54.5540   -1.1730   79.0750 C.ar      1 RAJ1        0.0000 
     35 C2         54.8950   -1.1310   80.4200 C.ar      1 RAJ1        0.0000 
     36 C1         56.2300   -1.3130   80.7790 C.ar      1 RAJ1        0.0000 
     37 N2         57.1410   -1.5040   79.8410 N.ar      1 RAJ1        0.0000 
     38 C4         56.7990   -1.5130   78.5620 C.ar      1 RAJ1        0.0000 
     39 N1         55.5380   -1.3410   78.1840 N.ar      1 RAJ1        0.0000 
     40 H          47.9576    6.6125   68.1376 H         1 RAJ1        0.0000 
     41 H          50.1745    5.8039   68.5080 H         1 RAJ1        0.0000 
     42 H          49.8564    5.9152   66.7683 H         1 RAJ1        0.0000 
     43 H          49.3711    3.3934   66.8261 H         1 RAJ1        0.0000 
     44 H          50.0325    3.4037   68.4700 H         1 RAJ1        0.0000 
     45 H          51.6687    4.8344   66.4549 H         1 RAJ1        0.0000 
     46 H          51.5448    3.0849   66.2020 H         1 RAJ1        0.0000 
     47 H          51.5282    1.9813   68.9036 H         1 RAJ1        0.0000 
     48 H          53.7171    5.2730   67.4661 H         1 RAJ1        0.0000 
     49 H          55.1129    3.1121   70.7944 H         1 RAJ1        0.0000 
     50 H          52.6042    0.5115   70.4977 H         1 RAJ1        0.0000 
     51 H          53.9250    0.8685   74.7343 H         1 RAJ1        0.0000 
     52 H          52.8641   -1.1747   71.2219 H         1 RAJ1        0.0000 
     53 H          52.5262   -3.2073   72.5102 H         1 RAJ1        0.0000 
     54 H          54.7272   -1.2537   76.6338 H         1 RAJ1        0.0000 
     55 H          49.5938   -0.3753   77.7123 H         1 RAJ1        0.0000 
     56 H          50.2202   -0.4218   80.0283 H         1 RAJ1        0.0000 
     57 H          52.5389   -0.7636   80.6595 H         1 RAJ1        0.0000 
     58 H          54.1853   -0.9704   81.1336 H         1 RAJ1        0.0000 
     59 H          56.4737   -1.2930   81.7877 H         1 RAJ1        0.0000 
     60 H          57.5445   -1.6601   77.8250 H         1 RAJ1        0.0000 
     61 H          47.8143    3.8140   69.0966 H         1 RAJ1        0.0000 
     62 H          48.2764    5.0751   69.9812 H         1 RAJ1        0.0000 
     63 H          46.7679    4.9886   69.4307 H         1 RAJ1        0.0000 
     64 H          47.6079    5.6255   65.9598 H         1 RAJ1        0.0000 
     65 H          47.3981    4.1581   66.5834 H         1 RAJ1        0.0000 
     66 H          46.3510    5.3316   66.9190 H         1 RAJ1        0.0000 
     67 H          53.4393   -4.3782   74.8366 H         1 RAJ1        0.0000 
     68 H          53.0197   -3.5272   76.1351 H         1 RAJ1        0.0000 
     69 H          51.8979   -3.9896   75.0797 H         1 RAJ1        0.0000 
@<TRIPOS>BOND
     1    2    1 1    
     2   61    1 1    
     3   62    1 1    
     4   63    1 1    
     5    3    2 1    
     6    4    2 1    
     7   40    2 1    
     8   64    3 1    
     9   65    3 1    
    10   66    3 1    
    11    5    4 1    
    12   41    4 1    
    13   42    4 1    
    14    6    5 1    
    15   43    5 1    
    16   44    5 1    
    17    7    6 1    
    18   45    6 1    
    19   46    6 1    
    20    8    7 ar   
    21    9    7 ar   
    22   16    8 ar   
    23   47    8 1    
    24   10    9 ar   
    25   48    9 1    
    26   11   10 1    
    27   15   10 ar   
    28   12   11 1    
    29   13   11 1    
    30   14   11 1    
    31   16   15 ar   
    32   49   15 1    
    33   17   16 1    
    34   18   17 am   
    35   50   17 1    
    36   19   18 2    
    37   20   18 1    
    38   21   20 ar   
    39   22   20 ar   
    40   26   21 ar   
    41   51   21 1    
    42   23   22 ar   
    43   52   22 1    
    44   24   23 ar   
    45   53   23 1    
    46   25   24 1    
    47   26   24 ar   
    48   67   25 1    
    49   68   25 1    
    50   69   25 1    
    51   27   26 1    
    52   28   27 1    
    53   54   27 1    
    54   29   28 ar   
    55   33   28 ar   
    56   30   29 ar   
    57   31   30 ar   
    58   55   30 1    
    59   32   31 ar   
    60   56   31 1    
    61   33   32 ar   
    62   57   32 1    
    63   34   33 1    
    64   35   34 ar   
    65   39   34 ar   
    66   36   35 ar   
    67   58   35 1    
    68   37   36 ar   
    69   59   36 1    
    70   38   37 ar   
    71   39   38 ar   
    72   60   38 1    
@<TRIPOS>SUBSTRUCTURE
     1 RAJ1        1 GROUP   
@<TRIPOS>SET

