#    Name: 3n83_ADP_3_INTS_M
#    Modification time : Tue Mar 25 00:51:35 2014

@<TRIPOS>MOLECULE
3n83_ADP_3_INTS_M
   59     0     9     0     0
SMALL
NO_CHARGES


@<TRIPOS>ATOM
      1 N          92.0395    6.5180   82.7205 N.am      2 SEC2        0.0000 
      2 N          91.0190    5.6260   83.3570 N.am      8 SEL2        0.0000 
      3 N          93.0600    7.4100   82.0840 N.am      5 SEP2        0.0000 
      4 N          86.1275    6.1520   80.4775 N.am      2 SEC2        0.0000 
      5 N          86.3740    6.1080   81.7550 N.am      8 SEL2        0.0000 
      6 N          85.8810    6.1960   79.2000 N.am      5 SEP2        0.0000 
      7 N          85.7475    4.8455   81.1530 N.am      2 SEC2        0.0000 
      8 N          85.1210    3.5830   80.5510 N.am      5 SEP2        0.0000 
      9 CA         86.7000    8.6785   81.2540 C.3       3 GLC5        0.0000 
     10 CA         87.2270    8.7800   83.1440 C.3       9 GLL5        0.0000 
     11 CA         86.1730    8.5770   79.3640 C.3       6 GLP5        0.0000 
     12 CA         89.5225   10.9825   86.1610 C.3       3 GLC5        0.0000 
     13 CA         87.8680    9.7180   85.4870 C.3       9 GLL5        0.0000 
     14 CA         91.1770   12.2470   86.8350 C.3       6 GLP5        0.0000 
     15 N          87.9170   11.0740   87.6490 N.am      2 SEC2        0.0000 
     16 N          87.8350   11.0180   86.1270 N.am      8 SEL2        0.0000 
     17 N          87.9990   11.1300   89.1710 N.am      5 SEP2        0.0000 
     18 O          88.1925   11.9790   85.1350 O.2       1 ALC1        0.0000 
     19 O          87.8350   11.0180   86.1270 O.2       7 ALL1        0.0000 
     20 O          88.5500   12.9400   84.1430 O.2       4 ALP1        0.0000 
     21 N          87.9225    9.9360   88.4710 N.am      2 SEC2        0.0000 
     22 N          87.8460    8.7420   87.7710 N.am      8 SEL2        0.0000 
     23 O          89.0705    8.6890   88.2360 O.2       1 ALC1        0.0000 
     24 O          87.8460    8.7420   87.7710 O.2       7 ALL1        0.0000 
     25 O          90.2950    8.6360   88.7010 O.2       4 ALP1        0.0000 
     26 CA         85.0075   10.3140   85.9665 C.3       3 GLC5        0.0000 
     27 CA         85.8760    8.7260   86.3270 C.3       9 GLL5        0.0000 
     28 CA         84.1390   11.9020   85.6060 C.3       6 GLP5        0.0000 
     29 CA         84.6440    8.9185   84.5690 C.3       3 GLC5        0.0000 
     30 CA         83.4120    9.1110   82.8110 C.3       6 GLP5        0.0000 
     31 CA         82.7335    5.4570   89.8875 C.3       3 GLC5        0.0000 
     32 CA         82.1980    5.9350   87.9140 C.3       9 GLL5        0.0000 
     33 CA         83.2690    4.9790   91.8610 C.3       6 GLP5        0.0000 
     34 CA         80.9715    6.4345   89.6755 C.3       3 GLC5        0.0000 
     35 CA         79.7450    6.9340   91.4370 C.3       6 GLP5        0.0000 
     36 CA         81.4190   10.1705   87.1500 C.3       3 GLC5        0.0000 
     37 CA         81.7260    8.2270   87.7290 C.3       9 GLL5        0.0000 
     38 CA         81.1120   12.1140   86.5710 C.3       6 GLP5        0.0000 
     39 CA         82.1610    9.4315   88.9245 C.3       3 GLC5        0.0000 
     40 CA         82.5960   10.6360   90.1200 C.3       6 GLP5        0.0000 
     41 CA         80.6925    8.3095   89.3360 C.3       3 GLC5        0.0000 
     42 CA         79.6590    8.3920   90.9430 C.3       6 GLP5        0.0000 
     43 CA         82.1205    7.0195   85.9375 C.3       3 GLC5        0.0000 
     44 CA         82.5150    5.8120   84.1460 C.3       6 GLP5        0.0000 
     45 CA         80.5845    8.5980   86.4215 C.3       3 GLC5        0.0000 
     46 CA         79.4430    8.9690   85.1140 C.3       6 GLP5        0.0000 
     47 CA         88.4270   10.5487   82.8125 C.3       3 GLC5        0.0000 
     48 CA         86.8350    9.6430   84.3600 C.3       9 GLL5        0.0000 
     49 CA         89.8230   11.8860   81.8730 C.3       6 GLP5        0.0000 
     50 CA         85.2215    9.1612   83.2815 C.3       3 GLC5        0.0000 
     51 CA         85.7452   10.7912   85.2647 C.3       3 GLC5        0.0000 
     52 CA         86.6502   10.2357   87.8665 C.3       3 GLC5        0.0000 
     53 CA         86.6670   11.8040   89.3560 C.3       6 GLP5        0.0000 
     54 CA         86.0927    8.0478   88.2065 C.3       3 GLC5        0.0000 
     55 CA         85.5520    7.4280   90.0360 C.3       6 GLP5        0.0000 
     56 CA         84.4534    7.1021   88.7246 C.3       3 GLC5        0.0000 
     57 CA         83.4990    6.1840   87.4570 C.3       9 GLL5        0.0000 
     58 CA         82.9349    6.2941   85.7796 C.3       3 GLC5        0.0000 
     59 CA         83.8610    7.4930   87.1410 C.3       9 GLL5        0.0000 
@<TRIPOS>BOND
@<TRIPOS>SUBSTRUCTURE
     1 ALC1       18 GROUP        1 X    ALC  0     ROOT ALC X 1
     2 SEC2        1 GROUP        1 X    SEC  0     **** SEC X 2
     3 GLC5        9 GROUP        1 X    GLC  0     **** GLC X 6
     4 ALP1       20 GROUP        1 Y    ALP  0     ROOT ALP Y 8
     5 SEP2        3 GROUP        1 Y    SEP  0     **** SEP Y 9
     6 GLP5       11 GROUP        1 Y    GLP  0     **** GLP Y 13
     7 ALL1       19 GROUP        1 Z    ALL  0     ROOT ALL Z 15
     8 SEL2        2 GROUP        1 Z    SEL  0     **** SEL Z 16
     9 GLL5       10 GROUP        1 Z    GLL  0     **** GLL Z 20
@<TRIPOS>SET

