#    Name: 3n83_ADP_3_ligand
#    Modification time : Tue Mar 25 00:51:35 2014

@<TRIPOS>MOLECULE
3n83_ADP_3_ligand
   39    41     1     0     0
SMALL
NO_CHARGES


@<TRIPOS>ATOM
      1 PB         90.0260    4.6970   82.6990 P.3       1 ADP503      0.0000 
      2 O1B        91.0190    5.6260   83.3570 O.co2     1 ADP503      0.0000 
      3 O2B        89.3830    3.7040   83.6430 O.co2     1 ADP503      0.0000 
      4 O3B        90.5260    4.0500   81.4270 O.co2     1 ADP503      0.0000 
      5 PA         87.4130    5.9950   82.8450 P.3       1 ADP503      0.0000 
      6 O1A        87.1760    5.0060   83.9590 O.co2     1 ADP503      0.0000 
      7 O2A        86.3740    6.1080   81.7550 O.co2     1 ADP503      0.0000 
      8 O3A        88.8510    5.6860   82.1540 O.3       1 ADP503      0.0000 
      9 O5'        87.6390    7.4460   83.5420 O.3       1 ADP503      0.0000 
     10 C5'        87.2270    8.7800   83.1440 C.3       1 ADP503      0.0000 
     11 C4'        86.8350    9.6430   84.3600 C.3       1 ADP503      0.0000 
     12 O4'        85.6370    9.1150   84.9710 O.3       1 ADP503      0.0000 
     13 C3'        87.8680    9.7180   85.4870 C.3       1 ADP503      0.0000 
     14 O3'        87.8350   11.0180   86.1270 O.3       1 ADP503      0.0000 
     15 C2'        87.3910    8.6090   86.4270 C.3       1 ADP503      0.0000 
     16 O2'        87.8460    8.7420   87.7710 O.3       1 ADP503      0.0000 
     17 C1'        85.8760    8.7260   86.3270 C.3       1 ADP503      0.0000 
     18 N9         85.1260    7.4950   86.7280 N.pl3     1 ADP503      0.0000 
     19 C8         85.5750    6.2220   86.7600 C.2       1 ADP503      0.0000 
     20 N7         84.5830    5.4100   87.2030 N.2       1 ADP503      0.0000 
     21 C5         83.4990    6.1840   87.4570 C.ar      1 ADP503      0.0000 
     22 C6         82.1980    5.9350   87.9140 C.ar      1 ADP503      0.0000 
     23 N6         81.7530    4.6910   88.2340 N.pl3     1 ADP503      0.0000 
     24 N1         81.3490    6.9800   88.0460 N.ar      1 ADP503      0.0000 
     25 C2         81.7260    8.2270   87.7290 C.ar      1 ADP503      0.0000 
     26 N3         82.9630    8.5020   87.2940 N.ar      1 ADP503      0.0000 
     27 C4         83.8610    7.4930   87.1410 C.ar      1 ADP503      0.0000 
     28 H          86.3595    8.7434   82.4685 H         1 ADP503      0.0000 
     29 H          88.0347    9.3034   82.6111 H         1 ADP503      0.0000 
     30 H          86.6381   10.6577   84.0192 H         1 ADP503      0.0000 
     31 H          88.8059    9.4517   85.0976 H         1 ADP503      0.0000 
     32 H          87.6614    7.6687   85.9735 H         1 ADP503      0.0000 
     33 H          85.5873    9.5598   86.9868 H         1 ADP503      0.0000 
     34 H          86.4643    5.9311   86.5073 H         1 ADP503      0.0000 
     35 H          82.4142    3.9476   88.1328 H         1 ADP503      0.0000 
     36 H          80.8037    4.6290   88.5423 H         1 ADP503      0.0000 
     37 H          81.0274    9.0149   87.8251 H         1 ADP503      0.0000 
     38 H          88.4981   11.5714   85.6229 H         1 ADP503      0.0000 
     39 H          88.8417    8.6678   87.7156 H         1 ADP503      0.0000 
@<TRIPOS>BOND
     1    2    1 ar   
     2    3    1 ar   
     3    4    1 ar   
     4    8    1 1    
     5    6    5 ar   
     6    7    5 ar   
     7    8    5 1    
     8    9    5 1    
     9   10    9 1    
    10   11   10 1    
    11   28   10 1    
    12   29   10 1    
    13   12   11 1    
    14   13   11 1    
    15   30   11 1    
    16   17   12 1    
    17   14   13 1    
    18   15   13 1    
    19   31   13 1    
    20   38   14 1    
    21   16   15 1    
    22   17   15 1    
    23   32   15 1    
    24   39   16 1    
    25   18   17 1    
    26   33   17 1    
    27   19   18 1    
    28   27   18 1    
    29   20   19 2    
    30   34   19 1    
    31   21   20 1    
    32   22   21 ar   
    33   27   21 ar   
    34   23   22 1    
    35   24   22 ar   
    36   35   23 1    
    37   36   23 1    
    38   25   24 ar   
    39   26   25 ar   
    40   37   25 1    
    41   27   26 ar   
@<TRIPOS>SUBSTRUCTURE
     1 ADP503      1 GROUP   
@<TRIPOS>SET

