#    Name: 1a28_STR_2_INTS_M
#    Modification time : Mon Mar 24 17:43:49 2014

@<TRIPOS>MOLECULE
1a28_STR_2_INTS_M
   64     0     6     0     0
SMALL
NO_CHARGES


@<TRIPOS>ATOM
      1 CA         38.3255   32.8995   37.9510 C.3       2 GLC5        0.0000 
      2 CA         37.3830   34.8850   38.4110 C.3       6 GLL5        0.0000 
      3 CA         39.2680   30.9140   37.4910 C.3       4 GLP5        0.0000 
      4 N          38.6250   35.8525   36.4335 N.am      1 SEC2        0.0000 
      5 N          39.5010   35.7610   37.7780 N.am      5 SEL2        0.0000 
      6 N          37.7490   35.9440   35.0890 N.am      3 SEP2        0.0000 
      7 CA         41.3290   35.2425   40.2975 C.3       2 GLC5        0.0000 
      8 CA         39.5770   34.3190   39.6470 C.3       6 GLL5        0.0000 
      9 CA         43.0810   36.1660   40.9480 C.3       4 GLP5        0.0000 
     10 CA         39.7090   36.2730   40.1780 C.3       2 GLC5        0.0000 
     11 CA         39.8410   38.2270   40.7090 C.3       4 GLP5        0.0000 
     12 CA         41.4940   32.1315   40.5700 C.3       2 GLC5        0.0000 
     13 CA         39.7000   32.7870   41.5920 C.3       6 GLL5        0.0000 
     14 CA         43.2880   31.4760   39.5480 C.3       4 GLP5        0.0000 
     15 CA         38.2045   30.7145   44.3470 C.3       2 GLC5        0.0000 
     16 CA         37.7550   32.3500   45.7550 C.3       6 GLL5        0.0000 
     17 CA         38.6540   29.0790   42.9390 C.3       4 GLP5        0.0000 
     18 CA         39.7560   31.8200   46.1980 C.3       2 GLC5        0.0000 
     19 CA         41.7570   31.2900   46.6410 C.3       4 GLP5        0.0000 
     20 CA         35.0560   35.2155   47.1885 C.3       2 GLC5        0.0000 
     21 CA         35.5290   33.3640   46.2880 C.3       6 GLL5        0.0000 
     22 CA         34.5830   37.0670   48.0890 C.3       4 GLP5        0.0000 
     23 CA         36.1845   29.9415   44.2370 C.3       2 GLC5        0.0000 
     24 CA         35.0530   31.5580   44.4750 C.3       6 GLL5        0.0000 
     25 CA         37.3160   28.3250   43.9990 C.3       4 GLP5        0.0000 
     26 CA         34.3200   29.9555   45.1690 C.3       2 GLC5        0.0000 
     27 CA         33.5870   28.3530   45.8630 C.3       4 GLP5        0.0000 
     28 CA         33.8100   31.2560   43.2090 C.3       2 GLC5        0.0000 
     29 CA         32.5670   30.9540   41.9430 C.3       4 GLP5        0.0000 
     30 CA         35.1580   32.8490   38.9260 C.3       2 GLC5        0.0000 
     31 CA         36.8520   32.2030   40.1130 C.3       6 GLL5        0.0000 
     32 CA         33.4640   33.4950   37.7390 C.3       4 GLP5        0.0000 
     33 CA         36.1040   30.2985   40.4620 C.3       2 GLC5        0.0000 
     34 CA         35.3560   28.3940   40.8110 C.3       4 GLP5        0.0000 
     35 CA         36.6735   31.4530   38.5660 C.3       2 GLC5        0.0000 
     36 CA         36.4950   30.7030   37.0190 C.3       4 GLP5        0.0000 
     37 CA         33.8215   35.5500   47.4200 C.3       2 GLC5        0.0000 
     38 CA         33.0600   34.0330   46.7510 C.3       6 GLL5        0.0000 
     39 CA         32.0375   33.6020   48.4845 C.3       2 GLC5        0.0000 
     40 CA         31.0150   33.1710   50.2180 C.3       4 GLP5        0.0000 
     41 CA         31.0275   34.8080   47.1775 C.3       2 GLC5        0.0000 
     42 CA         28.9950   35.5830   47.6040 C.3       4 GLP5        0.0000 
     43 CA         31.5030   32.7015   46.8545 C.3       2 GLC5        0.0000 
     44 CA         29.9460   31.3700   46.9580 C.3       4 GLP5        0.0000 
     45 CA         36.7948   36.6252   38.2845 C.3       2 GLC5        0.0000 
     46 CA         36.7220   34.7500   39.8210 C.3       6 GLL5        0.0000 
     47 CA         36.5370   38.4330   37.4530 C.3       4 GLP5        0.0000 
     48 CA         35.2583   34.1562   38.4275 C.3       2 GLC5        0.0000 
     49 CA         39.2560   32.4387   38.7970 C.3       2 GLC5        0.0000 
     50 CA         38.9110   33.6080   40.5590 C.3       6 GLL5        0.0000 
     51 CA         40.7308   33.8192   43.4282 C.3       2 GLC5        0.0000 
     52 CA         39.1710   32.9800   43.0350 C.3       6 GLL5        0.0000 
     53 CA         42.0260   34.7550   44.5430 C.3       4 GLP5        0.0000 
     54 CA         38.5926   30.9629   42.8366 C.3       2 GLC5        0.0000 
     55 CA         34.9205   35.8062   42.9918 C.3       2 GLC5        0.0000 
     56 CA         35.3900   33.8110   42.3560 C.3       6 GLL5        0.0000 
     57 CA         34.6610   37.6750   42.8890 C.3       4 GLP5        0.0000 
     58 CA         33.8735   32.4458   42.5187 C.3       2 GLC5        0.0000 
     59 CA         34.9700   34.0640   43.8330 C.3       6 GLL5        0.0000 
     60 CA         38.3115   33.2060   47.7263 C.3       2 GLC5        0.0000 
     61 CA         39.3620   33.9000   49.1060 C.3       4 GLP5        0.0000 
     62 CA         36.2280   32.7735   48.5800 C.3       2 GLC5        0.0000 
     63 CA         36.7670   32.6740   46.9380 C.3       6 GLL5        0.0000 
     64 CA         36.3080   32.5280   50.5470 C.3       4 GLP5        0.0000 
@<TRIPOS>BOND
@<TRIPOS>SUBSTRUCTURE
     1 SEC2        4 GROUP        1 X    SEC  0     ROOT SEC X 2
     2 GLC5        1 GROUP        1 X    GLC  0     **** GLC X 6
     3 SEP2        6 GROUP        1 Y    SEP  0     ROOT SEP Y 9
     4 GLP5        3 GROUP        1 Y    GLP  0     **** GLP Y 13
     5 SEL2        5 GROUP        1 Z    SEL  0     ROOT SEL Z 16
     6 GLL5        2 GROUP        1 Z    GLL  0     **** GLL Z 20
@<TRIPOS>SET

