#    Name: 1a28_STR_2_ligand
#    Modification time : Mon Mar 24 17:43:49 2014

@<TRIPOS>MOLECULE
1a28_STR_2_ligand
   53    56     1     0     0
SMALL
NO_CHARGES


@<TRIPOS>ATOM
      1 C1         36.7220   34.7500   39.8210 C.3       1 STR2        0.0000 
      2 C2         37.3830   34.8850   38.4110 C.3       1 STR2        0.0000 
      3 C3         38.8780   35.0520   38.5810 C.2       1 STR2        0.0000 
      4 O3         39.5010   35.7610   37.7780 O.2       1 STR2        0.0000 
      5 C4         39.5770   34.3190   39.6470 C.2       1 STR2        0.0000 
      6 C5         38.9110   33.6080   40.5590 C.2       1 STR2        0.0000 
      7 C6         39.7000   32.7870   41.5920 C.3       1 STR2        0.0000 
      8 C7         39.1710   32.9800   43.0350 C.3       1 STR2        0.0000 
      9 C8         37.6270   32.8100   43.1550 C.3       1 STR2        0.0000 
     10 C9         36.9320   33.8170   42.1680 C.3       1 STR2        0.0000 
     11 C10        37.3290   33.5900   40.6610 C.3       1 STR2        0.0000 
     12 C11        35.3900   33.8110   42.3560 C.3       1 STR2        0.0000 
     13 C12        34.9700   34.0640   43.8330 C.3       1 STR2        0.0000 
     14 C13        35.6010   33.0210   44.7670 C.3       1 STR2        0.0000 
     15 C14        37.1640   33.1570   44.5780 C.3       1 STR2        0.0000 
     16 C15        37.7550   32.3500   45.7550 C.3       1 STR2        0.0000 
     17 C16        36.7670   32.6740   46.9380 C.3       1 STR2        0.0000 
     18 C17        35.5290   33.3640   46.2880 C.3       1 STR2        0.0000 
     19 C18        35.0530   31.5580   44.4750 C.3       1 STR2        0.0000 
     20 C19        36.8520   32.2030   40.1130 C.3       1 STR2        0.0000 
     21 C20        34.1780   33.0980   46.9850 C.2       1 STR2        0.0000 
     22 O20        34.0280   32.1470   47.7210 O.2       1 STR2        0.0000 
     23 C21        33.0600   34.0330   46.7510 C.3       1 STR2        0.0000 
     24 H          35.6544   34.5722   39.6905 H         1 STR2        0.0000 
     25 H          36.8572   35.6872   40.3611 H         1 STR2        0.0000 
     26 H          36.9627   35.7490   37.9201 H         1 STR2        0.0000 
     27 H          37.1674   33.9904   37.8477 H         1 STR2        0.0000 
     28 H          40.6117   34.3929   39.6399 H         1 STR2        0.0000 
     29 H          40.7511   33.0850   41.5607 H         1 STR2        0.0000 
     30 H          39.6357   31.7270   41.3334 H         1 STR2        0.0000 
     31 H          39.4402   33.9823   43.3816 H         1 STR2        0.0000 
     32 H          39.6549   32.2510   43.6919 H         1 STR2        0.0000 
     33 H          37.3480   31.8343   42.9018 H         1 STR2        0.0000 
     34 H          37.2840   34.8292   42.4429 H         1 STR2        0.0000 
     35 H          34.9987   32.8442   42.0397 H         1 STR2        0.0000 
     36 H          34.9540   34.5880   41.7282 H         1 STR2        0.0000 
     37 H          33.8889   34.0057   43.9022 H         1 STR2        0.0000 
     38 H          35.2986   35.0564   44.1231 H         1 STR2        0.0000 
     39 H          37.3743   34.2233   44.7861 H         1 STR2        0.0000 
     40 H          38.7093   32.7136   45.9996 H         1 STR2        0.0000 
     41 H          37.7106   31.3217   45.5467 H         1 STR2        0.0000 
     42 H          37.2393   33.3474   47.6071 H         1 STR2        0.0000 
     43 H          36.4684   31.7658   47.3964 H         1 STR2        0.0000 
     44 H          35.7457   34.4639   46.3497 H         1 STR2        0.0000 
     45 H          35.2482   31.2684   43.5380 H         1 STR2        0.0000 
     46 H          35.4642   30.8791   45.0833 H         1 STR2        0.0000 
     47 H          34.0624   31.5008   44.5991 H         1 STR2        0.0000 
     48 H          37.1235   32.0668   39.1603 H         1 STR2        0.0000 
     49 H          37.2361   31.4440   40.6386 H         1 STR2        0.0000 
     50 H          35.8569   32.1113   40.1502 H         1 STR2        0.0000 
     51 H          33.2856   34.9623   47.0436 H         1 STR2        0.0000 
     52 H          32.8134   34.0822   45.7831 H         1 STR2        0.0000 
     53 H          32.2372   33.7603   47.2496 H         1 STR2        0.0000 
@<TRIPOS>BOND
     1    2    1 1    
     2   11    1 1    
     3   24    1 1    
     4   25    1 1    
     5    3    2 1    
     6   26    2 1    
     7   27    2 1    
     8    4    3 2    
     9    5    3 1    
    10    6    5 2    
    11   28    5 1    
    12    7    6 1    
    13   11    6 1    
    14    8    7 1    
    15   29    7 1    
    16   30    7 1    
    17    9    8 1    
    18   31    8 1    
    19   32    8 1    
    20   10    9 1    
    21   15    9 1    
    22   33    9 1    
    23   11   10 1    
    24   12   10 1    
    25   34   10 1    
    26   20   11 1    
    27   13   12 1    
    28   35   12 1    
    29   36   12 1    
    30   14   13 1    
    31   37   13 1    
    32   38   13 1    
    33   15   14 1    
    34   18   14 1    
    35   19   14 1    
    36   16   15 1    
    37   39   15 1    
    38   17   16 1    
    39   40   16 1    
    40   41   16 1    
    41   18   17 1    
    42   42   17 1    
    43   43   17 1    
    44   21   18 1    
    45   44   18 1    
    46   45   19 1    
    47   46   19 1    
    48   47   19 1    
    49   48   20 1    
    50   49   20 1    
    51   50   20 1    
    52   22   21 2    
    53   23   21 1    
    54   51   23 1    
    55   52   23 1    
    56   53   23 1    
@<TRIPOS>SUBSTRUCTURE
     1 STR2        1 GROUP   
@<TRIPOS>SET

