#    Name: 3rah_O1Z_1_INTS_M
#    Modification time : Tue Mar 25 11:19:00 2014

@<TRIPOS>MOLECULE
3rah_O1Z_1_INTS_M
   63     0     9     0     0
SMALL
NO_CHARGES


@<TRIPOS>ATOM
      1 CA         92.9565   82.8655  -47.9055 C.3       3 GLC5        0.0000 
      2 CA         92.2410   81.0180  -48.5450 C.3       9 GLL5        0.0000 
      3 CA         93.6720   84.7130  -47.2660 C.3       6 GLP5        0.0000 
      4 N          90.8645   82.6865  -52.0770 N.am      2 SEC2        0.0000 
      5 N          91.8650   82.0740  -50.8890 N.am      8 SEL2        0.0000 
      6 N          89.8640   83.2990  -53.2650 N.am      5 SEP2        0.0000 
      7 CA         92.4260   77.0255  -49.7820 C.3       3 GLC5        0.0000 
      8 CA         94.1630   77.0890  -48.5100 C.3       9 GLL5        0.0000 
      9 CA         90.6890   76.9620  -51.0540 C.3       6 GLP5        0.0000 
     10 CA         94.1355   76.4185  -50.5325 C.3       3 GLC5        0.0000 
     11 CA         94.1080   75.7480  -52.5550 C.3       6 GLP5        0.0000 
     12 N          95.8495   78.3025  -50.5255 N.am      2 SEC2        0.0000 
     13 N          94.6080   78.7620  -50.8850 N.am      8 SEL2        0.0000 
     14 N          97.0910   77.8430  -50.1660 N.am      5 SEP2        0.0000 
     15 CA         95.7325   80.8325  -47.2440 C.3       3 GLC5        0.0000 
     16 CA         94.4910   79.2960  -47.3520 C.3       9 GLL5        0.0000 
     17 CA         96.9740   82.3690  -47.1360 C.3       6 GLP5        0.0000 
     18 O          93.3045   81.5285  -53.5725 O.2       1 ALC1        0.0000 
     19 O          93.2810   80.7850  -52.3010 O.2       7 ALL1        0.0000 
     20 O          93.3280   82.2720  -54.8440 O.2       4 ALP1        0.0000 
     21 CA         93.0595   75.2100  -44.5345 C.3       3 GLC5        0.0000 
     22 CA         94.8060   76.4420  -44.7880 C.3       9 GLL5        0.0000 
     23 CA         91.3130   73.9780  -44.2810 C.3       6 GLP5        0.0000 
     24 CA         95.2645   80.3575  -42.3665 C.3       3 GLC5        0.0000 
     25 CA         95.1290   78.6510  -43.6280 C.3       9 GLL5        0.0000 
     26 CA         95.4000   82.0640  -41.1050 C.3       6 GLP5        0.0000 
     27 CA         96.6520   79.0870  -42.1190 C.3       3 GLC5        0.0000 
     28 CA         98.1750   79.5230  -40.6100 C.3       6 GLP5        0.0000 
     29 CA         93.9700   81.1280  -44.8840 C.3       3 GLC5        0.0000 
     30 CA         94.9460   79.3590  -44.8750 C.3       9 GLL5        0.0000 
     31 CA         92.9940   82.8970  -44.8930 C.3       6 GLP5        0.0000 
     32 CA         90.5575   84.5865  -48.8450 C.3       3 GLC5        0.0000 
     33 CA         89.9970   82.9140  -47.7880 C.3       9 GLL5        0.0000 
     34 CA         91.1180   86.2590  -49.9020 C.3       6 GLP5        0.0000 
     35 CA         89.2290   80.3890  -48.9785 C.3       3 GLC5        0.0000 
     36 CA         88.9240   81.7720  -47.7610 C.3       9 GLL5        0.0000 
     37 CA         89.5340   79.0060  -50.1960 C.3       6 GLP5        0.0000 
     38 CA         88.0195   79.4760  -46.6590 C.3       3 GLC5        0.0000 
     39 CA         88.3210   81.6020  -46.3440 C.3       9 GLL5        0.0000 
     40 CA         87.7180   77.3500  -46.9740 C.3       6 GLP5        0.0000 
     41 CA         89.5760   85.4820  -48.6270 C.3       3 GLC5        0.0000 
     42 CA         89.3600   84.2490  -47.3170 C.3       9 GLL5        0.0000 
     43 CA         89.7920   86.7150  -49.9370 C.3       6 GLP5        0.0000 
     44 CA         93.7578   74.9885  -48.4075 C.3       3 GLC5        0.0000 
     45 CA         93.2540   73.2380  -48.9280 C.3       6 GLP5        0.0000 
     46 CA         96.0026   78.8879  -49.0815 C.3       3 GLC5        0.0000 
     47 CA         97.6640   79.2190  -50.2120 C.3       6 GLP5        0.0000 
     48 CA         96.8454   77.4289  -43.7033 C.3       3 GLC5        0.0000 
     49 CA         95.0590   77.2070  -43.5860 C.3       9 GLL5        0.0000 
     50 CA         98.6600   77.1200  -43.4990 C.3       6 GLP5        0.0000 
     51 CA         96.5974   79.6966  -45.2320 C.3       3 GLC5        0.0000 
     52 CA         98.2220   80.5740  -45.9070 C.3       6 GLP5        0.0000 
     53 CA         94.1993   82.0418  -50.8632 C.3       3 GLC5        0.0000 
     54 CA         93.0700   80.3800  -49.8980 C.3       9 GLL5        0.0000 
     55 CA         95.4820   83.3580  -51.2420 C.3       6 GLP5        0.0000 
     56 CA         91.1216   79.9455  -50.1711 C.3       3 GLC5        0.0000 
     57 CA         92.7630   81.0710  -51.0710 C.3       9 GLL5        0.0000 
     58 CA         91.6752   84.1472  -47.4093 C.3       3 GLC5        0.0000 
     59 CA         87.5700   81.5610  -44.2742 C.3       3 GLC5        0.0000 
     60 CA         87.1170   80.8530  -42.4640 C.3       6 GLP5        0.0000 
     61 CA         86.6859   81.7303  -47.5034 C.3       3 GLC5        0.0000 
     62 CA         87.7250   82.9360  -45.8250 C.3       9 GLL5        0.0000 
     63 CA         85.1980   81.1490  -48.5680 C.3       6 GLP5        0.0000 
@<TRIPOS>BOND
@<TRIPOS>SUBSTRUCTURE
     1 ALC1       18 GROUP        1 X    ALC  0     ROOT ALC X 1
     2 SEC2        4 GROUP        1 X    SEC  0     **** SEC X 2
     3 GLC5        1 GROUP        1 X    GLC  0     **** GLC X 6
     4 ALP1       20 GROUP        1 Y    ALP  0     ROOT ALP Y 8
     5 SEP2        6 GROUP        1 Y    SEP  0     **** SEP Y 9
     6 GLP5        3 GROUP        1 Y    GLP  0     **** GLP Y 13
     7 ALL1       19 GROUP        1 Z    ALL  0     ROOT ALL Z 15
     8 SEL2        5 GROUP        1 Z    SEL  0     **** SEL Z 16
     9 GLL5        2 GROUP        1 Z    GLL  0     **** GLL Z 20
@<TRIPOS>SET

