#    Name: 3rah_O1Z_1_ligand
#    Modification time : Tue Mar 25 11:19:00 2014

@<TRIPOS>MOLECULE
3rah_O1Z_1_ligand
   46    49     1     0     0
SMALL
NO_CHARGES


@<TRIPOS>ATOM
      1 C1         94.6170   77.1240  -46.0520 C.ar      1 O1Z516      0.0000 
      2 S1         92.2410   81.0180  -48.5450 S.3       1 O1Z516      0.0000 
      3 C2         94.3600   76.3890  -47.2640 C.ar      1 O1Z516      0.0000 
      4 N2         91.8650   82.0740  -50.8890 N.2       1 O1Z516      0.0000 
      5 C3         94.1630   77.0890  -48.5100 C.ar      1 O1Z516      0.0000 
      6 N3         90.5810   83.0760  -49.1280 N.pl3     1 O1Z516      0.0000 
      7 O3         94.6080   78.7620  -50.8850 O.2       1 O1Z516      0.0000 
      8 C4         94.4910   79.2960  -47.3520 C.ar      1 O1Z516      0.0000 
      9 N4         93.2810   80.7850  -52.3010 N.pl3     1 O1Z516      0.0000 
     10 C5         94.6870   78.6160  -46.0970 C.ar      1 O1Z516      0.0000 
     11 C6         94.8060   76.4420  -44.7880 C.ar      1 O1Z516      0.0000 
     12 C7         95.0590   77.2070  -43.5860 C.ar      1 O1Z516      0.0000 
     13 C8         95.1290   78.6510  -43.6280 C.ar      1 O1Z516      0.0000 
     14 C9         94.9460   79.3590  -44.8750 C.ar      1 O1Z516      0.0000 
     15 C10        94.2200   78.5460  -48.5900 C.ar      1 O1Z516      0.0000 
     16 C11        94.0010   79.2080  -49.7530 C.2       1 O1Z516      0.0000 
     17 C12        93.0700   80.3800  -49.8980 C.2       1 O1Z516      0.0000 
     18 C13        92.7630   81.0710  -51.0710 C.2       1 O1Z516      0.0000 
     19 C14        91.4960   82.1530  -49.5780 C.2       1 O1Z516      0.0000 
     20 C15        89.9970   82.9140  -47.7880 C.3       1 O1Z516      0.0000 
     21 C16        88.9240   81.7720  -47.7610 C.3       1 O1Z516      0.0000 
     22 C17        88.3210   81.6020  -46.3440 C.3       1 O1Z516      0.0000 
     23 C18        87.7250   82.9360  -45.8250 C.3       1 O1Z516      0.0000 
     24 C19        88.7400   84.1050  -45.9040 C.3       1 O1Z516      0.0000 
     25 C20        89.3600   84.2490  -47.3170 C.3       1 O1Z516      0.0000 
     26 H          94.3173   75.3772  -47.2423 H         1 O1Z516      0.0000 
     27 H          93.9784   76.5585  -49.3624 H         1 O1Z516      0.0000 
     28 H          90.2850   83.8721  -49.6798 H         1 O1Z516      0.0000 
     29 H          94.5378   80.3085  -47.3978 H         1 O1Z516      0.0000 
     30 H          93.9452   80.0383  -52.3359 H         1 O1Z516      0.0000 
     31 H          92.9508   81.3473  -53.0591 H         1 O1Z516      0.0000 
     32 H          94.7612   75.4353  -44.7465 H         1 O1Z516      0.0000 
     33 H          95.1889   76.7238  -42.7024 H         1 O1Z516      0.0000 
     34 H          95.3078   79.1704  -42.7761 H         1 O1Z516      0.0000 
     35 H          94.9972   80.3648  -44.9005 H         1 O1Z516      0.0000 
     36 H          90.7667   82.6508  -47.0694 H         1 O1Z516      0.0000 
     37 H          89.3974   80.8450  -48.0632 H         1 O1Z516      0.0000 
     38 H          88.1340   82.0226  -48.4595 H         1 O1Z516      0.0000 
     39 H          89.1007   81.2743  -45.6636 H         1 O1Z516      0.0000 
     40 H          87.5355   80.8538  -46.3801 H         1 O1Z516      0.0000 
     41 H          87.4157   82.8053  -44.7876 H         1 O1Z516      0.0000 
     42 H          86.8481   83.1877  -46.4222 H         1 O1Z516      0.0000 
     43 H          89.5386   83.9295  -45.1832 H         1 O1Z516      0.0000 
     44 H          88.2313   85.0334  -45.6443 H         1 O1Z516      0.0000 
     45 H          88.5832   84.5363  -48.0179 H         1 O1Z516      0.0000 
     46 H          90.1265   85.0165  -47.2918 H         1 O1Z516      0.0000 
@<TRIPOS>BOND
     1    3    1 ar   
     2   10    1 ar   
     3   11    1 ar   
     4   17    2 1    
     5   19    2 1    
     6    5    3 ar   
     7   26    3 1    
     8   18    4 1    
     9   19    4 2    
    10   15    5 ar   
    11   27    5 1    
    12   19    6 1    
    13   20    6 1    
    14   28    6 1    
    15   16    7 2    
    16   10    8 ar   
    17   15    8 ar   
    18   29    8 1    
    19   18    9 1    
    20   30    9 1    
    21   31    9 1    
    22   14   10 ar   
    23   12   11 ar   
    24   32   11 1    
    25   13   12 ar   
    26   33   12 1    
    27   14   13 ar   
    28   34   13 1    
    29   35   14 1    
    30   16   15 1    
    31   17   16 1    
    32   18   17 2    
    33   21   20 1    
    34   25   20 1    
    35   36   20 1    
    36   22   21 1    
    37   37   21 1    
    38   38   21 1    
    39   23   22 1    
    40   39   22 1    
    41   40   22 1    
    42   24   23 1    
    43   41   23 1    
    44   42   23 1    
    45   25   24 1    
    46   43   24 1    
    47   44   24 1    
    48   45   25 1    
    49   46   25 1    
@<TRIPOS>SUBSTRUCTURE
     1 O1Z516      1 GROUP   
@<TRIPOS>SET

