#    Name: 3LDX_1_CAVITY_N1_6.mol2
#    Modification time : Tue Mar 11 11:20:38 2014

@<TRIPOS>MOLECULE
3LDX_1_CAVITY_N1_6.mol2
  103     0     7     0     0
SMALL
NO_CHARGES


@<TRIPOS>ATOM
      1 DU         19.7536  -16.4965   23.5700 H         7 CUB7        0.0000 
      2 OG         20.6310  -16.5727   22.3558 O.2       1 SER1        0.0000 
      3 CZ         19.4660  -17.0568   21.5443 C.ar      5 PHE5        0.0000 
      4 N          14.5037  -17.7961   23.5640 N.2       2 ALA2        0.0000 
      5 CA         12.1737  -18.7641   21.9410 C.3       6 GLY6        0.0000 
      6 OG         21.4454  -14.6710   22.8250 O.2       1 SER1        0.0000 
      7 DU         19.4030  -15.0788   23.2277 H         7 CUB7        0.0000 
      8 OG         20.2804  -15.1550   22.0135 O.2       1 SER1        0.0000 
      9 N          17.3606  -15.4866   23.6304 N.2       2 ALA2        0.0000 
     10 DU         18.2380  -15.5628   22.4162 H         7 CUB7        0.0000 
     11 CZ         19.1154  -15.6390   21.2020 C.ar      5 PHE5        0.0000 
     12 N          16.1956  -15.9706   22.8189 N.2       2 ALA2        0.0000 
     13 CZ         17.0730  -16.0468   21.6047 C.ar      5 PHE5        0.0000 
     14 N          15.0306  -16.4546   22.0074 N.2       2 ALA2        0.0000 
     15 CZ         15.9080  -16.5309   20.7932 C.ar      5 PHE5        0.0000 
     16 O          12.9881  -16.8624   22.4102 O.2       2 ALA2        0.0000 
     17 DU         13.8656  -16.9386   21.1960 H         7 CUB7        0.0000 
     18 DU         14.7430  -17.0149   19.9817 H         7 CUB7        0.0000 
     19 CA         11.8231  -17.3464   21.5987 C.3       6 GLY6        0.0000 
     20 DU         12.7006  -17.4227   20.3845 H         7 CUB7        0.0000 
     21 NZ         12.4130  -17.9829   18.3588 N.2       4 LYS4        0.0000 
     22 CA         19.0524  -13.6611   22.8853 C.3       6 GLY6        0.0000 
     23 CA         19.9299  -13.7373   21.6711 C.3       6 GLY6        0.0000 
     24 CZ         20.8073  -13.8135   20.4569 C.ar      5 PHE5        0.0000 
     25 DU         17.8874  -14.1451   22.0739 H         7 CUB7        0.0000 
     26 CZ         18.7649  -14.2213   20.8597 C.ar      5 PHE5        0.0000 
     27 CZ         19.6423  -14.2976   19.6454 C.ar      5 PHE5        0.0000 
     28 N          15.8450  -14.5529   22.4766 N.2       2 ALA2        0.0000 
     29 DU         16.7224  -14.6291   21.2624 H         7 CUB7        0.0000 
     30 CZ         17.5999  -14.7054   20.0482 C.ar      5 PHE5        0.0000 
     31 N          14.6800  -15.0369   21.6651 N.2       2 ALA2        0.0000 
     32 DU         15.5574  -15.1131   20.4509 H         7 CUB7        0.0000 
     33 CZ         16.4349  -15.1894   19.2367 C.ar      5 PHE5        0.0000 
     34 N          12.6376  -15.4447   22.0678 N.2       2 ALA2        0.0000 
     35 DU         13.5150  -15.5209   20.8536 H         7 CUB7        0.0000 
     36 DU         14.3924  -15.5972   19.6394 H         7 CUB7        0.0000 
     37 CZ         15.2699  -15.6734   18.4252 C.ar      5 PHE5        0.0000 
     38 CZ         16.1473  -15.7496   17.2110 C.ar      5 PHE5        0.0000 
     39 CA         11.4726  -15.9287   21.2563 C.3       6 GLY6        0.0000 
     40 CA         12.3500  -16.0050   20.0421 C.3       6 GLY6        0.0000 
     41 NZ         13.2274  -16.0812   18.8279 N.2       4 LYS4        0.0000 
     42 CA         19.5793  -12.3196   21.3288 C.3       6 GLY6        0.0000 
     43 CA         20.4567  -12.3958   20.1146 C.3       6 GLY6        0.0000 
     44 CA         17.5369  -12.7274   21.7315 C.3       6 GLY6        0.0000 
     45 CA         18.4143  -12.8036   20.5173 C.3       6 GLY6        0.0000 
     46 CA         19.2917  -12.8799   19.3031 C.3       6 GLY6        0.0000 
     47 O          15.4944  -13.1352   22.1342 O.2       2 ALA2        0.0000 
     48 DU         16.3719  -13.2114   20.9200 H         7 CUB7        0.0000 
     49 CZ         17.2493  -13.2876   19.7058 C.ar      5 PHE5        0.0000 
     50 CZ         18.1267  -13.3639   18.4916 C.ar      5 PHE5        0.0000 
     51 CA         12.5746  -13.4667   23.7512 C.3       6 GLY6        0.0000 
     52 O          13.4520  -13.5430   22.5370 O.2       2 ALA2        0.0000 
     53 DU         14.3294  -13.6192   21.3228 H         7 CUB7        0.0000 
     54 DU         15.2069  -13.6954   20.1086 H         7 CUB7        0.0000 
     55 CZ         16.0843  -13.7717   18.8943 C.ar      5 PHE5        0.0000 
     56 CZ         16.9617  -13.8479   17.6801 C.ar      5 PHE5        0.0000 
     57 N          12.2870  -14.0270   21.7255 N.2       2 ALA2        0.0000 
     58 O          13.1645  -14.1032   20.5113 O.2       2 ALA2        0.0000 
     59 CA         14.0419  -14.1795   19.2971 C.3       6 GLY6        0.0000 
     60 CA         14.9193  -14.2557   18.0829 C.3       6 GLY6        0.0000 
     61 CZ         15.7968  -14.3319   16.8687 C.ar      5 PHE5        0.0000 
     62 CZ         16.6742  -14.4082   15.6544 C.ar      5 PHE5        0.0000 
     63 O          11.9995  -14.5872   19.6998 O.2       2 ALA2        0.0000 
     64 CA         12.8769  -14.6635   18.4856 C.3       6 GLY6        0.0000 
     65 NZ         13.7543  -14.7397   17.2714 N.2       4 LYS4        0.0000 
     66 NZ         15.5092  -14.8922   14.8430 N.2       4 LYS4        0.0000 
     67 N          15.1439  -11.7175   21.7919 N.2       2 ALA2        0.0000 
     68 OG         16.0213  -11.7937   20.5777 O.2       1 SER1        0.0000 
     69 N          16.8988  -11.8699   19.3635 N.2       2 ALA2        0.0000 
     70 CA         17.7762  -11.9462   18.1493 C.3       6 GLY6        0.0000 
     71 CA         11.3466  -11.9728   24.6230 C.3       6 GLY6        0.0000 
     72 O          12.2240  -12.0490   23.4088 O.2       2 ALA2        0.0000 
     73 O          13.1015  -12.1253   22.1946 O.2       2 ALA2        0.0000 
     74 OG         13.9789  -12.2015   20.9804 O.2       1 SER1        0.0000 
     75 OG         14.8563  -12.2777   19.7662 O.2       1 SER1        0.0000 
     76 OG         15.7338  -12.3540   18.5520 O.2       1 SER1        0.0000 
     77 OG         16.6112  -12.4302   17.3378 O.2       1 SER1        0.0000 
     78 OD1        17.4886  -12.5064   16.1236 O.3       3 ASP3        0.0000 
     79 N          11.0590  -12.5330   22.5973 N.2       2 ALA2        0.0000 
     80 CA         11.9365  -12.6093   21.3831 C.3       6 GLY6        0.0000 
     81 O          12.8139  -12.6855   20.1689 O.2       2 ALA2        0.0000 
     82 CA         13.6913  -12.7617   18.9547 C.3       6 GLY6        0.0000 
     83 CA         14.5688  -12.8380   17.7405 C.3       6 GLY6        0.0000 
     84 CA         15.4462  -12.9142   16.5263 C.3       6 GLY6        0.0000 
     85 OD1        16.3236  -12.9904   15.3121 O.3       3 ASP3        0.0000 
     86 NZ         15.1586  -13.4745   14.5006 N.2       4 LYS4        0.0000 
     87 N          12.1610  -10.0710   25.0922 N.2       2 ALA2        0.0000 
     88 N          13.0385  -10.1473   23.8780 N.2       2 ALA2        0.0000 
     89 N          13.9159  -10.2235   22.6638 N.2       2 ALA2        0.0000 
     90 NZ         10.9960  -10.5551   24.2807 N.2       4 LYS4        0.0000 
     91 CA         11.8735  -10.6313   23.0665 C.3       6 GLY6        0.0000 
     92 N          12.7509  -10.7075   21.8523 N.2       2 ALA2        0.0000 
     93 OG         13.6283  -10.7838   20.6381 O.2       1 SER1        0.0000 
     94 OG         16.2606  -11.0125   16.9955 O.2       1 SER1        0.0000 
     95 OD1        17.1381  -11.0887   15.7813 O.3       3 ASP3        0.0000 
     96 O          10.7085  -11.1153   22.2550 O.2       2 ALA2        0.0000 
     97 N          11.5859  -11.1916   21.0408 N.2       2 ALA2        0.0000 
     98 OG         14.2182  -11.4203   17.3982 O.2       1 SER1        0.0000 
     99 OG         15.0956  -11.4965   16.1840 O.2       1 SER1        0.0000 
    100 OD1        15.9731  -11.5727   14.9698 O.3       3 ASP3        0.0000 
    101 CA         11.5229   -9.2136   22.7242 C.3       6 GLY6        0.0000 
    102 CA         16.7875   -9.6710   15.4389 C.3       6 GLY6        0.0000 
    103 OG         14.7451  -10.0788   15.8416 O.2       1 SER1        0.0000 
@<TRIPOS>BOND
@<TRIPOS>SUBSTRUCTURE
     1 SER1        2 GROUP   
     2 ALA2        4 GROUP   
     3 ASP3       78 GROUP   
     4 LYS4       21 GROUP   
     5 PHE5        3 GROUP   
     6 GLY6        5 GROUP   
     7 CUB7        1 GROUP   
@<TRIPOS>SET

