#    Name: 3ldx_NLI_1_INTS_M
#    Modification time : Mon Mar 24 21:33:22 2014

@<TRIPOS>MOLECULE
3ldx_NLI_1_INTS_M
   71     0    12     0     0
SMALL
NO_CHARGES


@<TRIPOS>ATOM
      1 CA         19.6545  -11.5650   19.3400 C.3       4 GLC5        0.0000 
      2 CA         20.1720  -13.2440   20.0340 C.3      12 GLL5        0.0000 
      3 CA         19.1370   -9.8860   18.6460 C.3       8 GLP5        0.0000 
      4 CA         21.5890  -14.3480   19.5190 C.3       4 GLC5        0.0000 
      5 CA         23.0060  -15.4520   19.0040 C.3       8 GLP5        0.0000 
      6 CA         19.3390  -14.8195   19.0430 C.3       4 GLC5        0.0000 
      7 CA         18.5060  -16.3950   18.0520 C.3       8 GLP5        0.0000 
      8 O          15.8675  -15.7730   24.4860 O.2       1 ALC1        0.0000 
      9 O          17.0660  -16.1520   23.9050 O.2       9 ALL1        0.0000 
     10 O          14.6690  -15.3940   25.0670 O.2       5 ALP1        0.0000 
     11 CA         18.6730  -16.2640   28.5445 C.3       4 GLC5        0.0000 
     12 CA         17.4900  -16.4580   26.7160 C.3      12 GLL5        0.0000 
     13 CA         19.8560  -16.0700   30.3730 C.3       8 GLP5        0.0000 
     14 CA         17.2550  -14.7190   27.2900 C.3       4 GLC5        0.0000 
     15 CA         17.0200  -12.9800   27.8640 C.3       8 GLP5        0.0000 
     16 CA         19.8050  -17.5970   28.2175 C.3       4 GLC5        0.0000 
     17 CA         18.6130  -18.2360   26.4950 C.3      12 GLL5        0.0000 
     18 CA         20.9970  -16.9580   29.9400 C.3       8 GLP5        0.0000 
     19 CA         20.3040  -16.5805   27.8585 C.3       4 GLC5        0.0000 
     20 CA         19.6110  -16.2030   25.7770 C.3      12 GLL5        0.0000 
     21 CA         19.7285  -15.4745   28.2865 C.3       4 GLC5        0.0000 
     22 CA         19.6010  -14.8790   26.2000 C.3      12 GLL5        0.0000 
     23 N          15.4640  -13.2310   24.1050 N.am      2 SEC2        0.0000 
     24 N          16.2390  -13.7290   22.8400 N.am     10 SEL2        0.0000 
     25 N          14.6890  -12.7330   25.3700 N.am      6 SEP2        0.0000 
     26 CA         18.3230  -11.0265   19.8365 C.3       4 GLC5        0.0000 
     27 CA         17.5090  -12.1670   21.0270 C.3      12 GLL5        0.0000 
     28 CA         19.1020  -11.5530   22.0670 C.3       4 GLC5        0.0000 
     29 CA         20.6950  -10.9390   23.1070 C.3       8 GLP5        0.0000 
     30 CA         17.4400  -11.7770   22.9975 C.3       4 GLC5        0.0000 
     31 CA         17.3710  -11.3870   24.9680 C.3       8 GLP5        0.0000 
     32 O          15.8050  -10.3835   21.6695 O.2       1 ALC1        0.0000 
     33 O          15.1310  -11.4690   20.9000 O.2       9 ALL1        0.0000 
     34 O          16.4790   -9.2980   22.4390 O.2       5 ALP1        0.0000 
     35 CA         12.5285  -12.0880   18.7345 C.3       4 GLC5        0.0000 
     36 CA         13.7860  -11.3730   20.2690 C.3      12 GLL5        0.0000 
     37 CA         11.2710  -12.8030   17.2000 C.3       8 GLP5        0.0000 
     38 CA         14.5590   -9.7615   19.1695 C.3       4 GLC5        0.0000 
     39 CA         15.3320   -8.1500   18.0700 C.3       8 GLP5        0.0000 
     40 CA         10.9640  -11.2910   20.7175 C.3       4 GLC5        0.0000 
     41 CA         12.8760  -10.5630   21.2480 C.3      12 GLL5        0.0000 
     42 CA          9.0520  -12.0190   20.1870 C.3       8 GLP5        0.0000 
     43 CA         12.5895   -8.7120   21.5215 C.3       4 GLC5        0.0000 
     44 CA         12.3030   -6.8610   21.7950 C.3       8 GLP5        0.0000 
     45 O          13.4415  -10.8585   24.9405 O.2       1 ALC1        0.0000 
     46 O          12.5150  -10.9460   23.4800 O.2       9 ALL1        0.0000 
     47 O          14.3680  -10.7710   26.4010 O.2       5 ALP1        0.0000 
     48 OD1         9.3045  -10.5085   25.2465 O.co2     3 ASC3        0.0000 
     49 OD1        11.2540  -11.5260   24.0250 O.co2    11 ASL3        0.0000 
     50 OD1         8.1970  -10.4130   25.7560 O.co2     7 ASP3        0.0000 
     51 OD1         9.5505  -12.6935   24.9930 O.co2     3 ASC3        0.0000 
     52 OD1         8.1050  -12.6020   25.9270 O.co2     7 ASP3        0.0000 
     53 O           9.5505  -12.6935   24.9930 O.2       1 ALC1        0.0000 
     54 O          10.9960  -12.7850   24.0590 O.2       9 ALL1        0.0000 
     55 O           8.1050  -12.6020   25.9270 O.2       5 ALP1        0.0000 
     56 O           9.3045  -10.5085   25.2465 O.2       1 ALC1        0.0000 
     57 O          10.4120  -10.6040   24.7370 O.2       9 ALL1        0.0000 
     58 O           8.1970  -10.4130   25.7560 O.2       5 ALP1        0.0000 
     59 O           9.2585  -11.6030   25.3320 O.2       1 ALC1        0.0000 
     60 CA         20.1990  -12.2900   21.7922 C.3       4 GLC5        0.0000 
     61 CA         19.2340  -14.0380   20.9210 C.3      12 GLL5        0.0000 
     62 CA         16.5950  -17.4862   27.4721 C.3       4 GLC5        0.0000 
     63 CA         18.3480  -17.0880   25.8870 C.3      12 GLL5        0.0000 
     64 CA         14.9240  -17.4680   28.5460 C.3       8 GLP5        0.0000 
     65 CA         22.6602  -13.3933   27.0217 C.3       4 GLC5        0.0000 
     66 CA         20.7450  -14.0890   26.0810 C.3      12 GLL5        0.0000 
     67 CA         23.9860  -12.4430   28.2330 C.3       8 GLP5        0.0000 
     68 CA         21.6872  -12.6773   24.8488 C.3       4 GLC5        0.0000 
     69 CA         21.9240  -14.5980   25.5400 C.3      12 GLL5        0.0000 
     70 CA         22.0400  -11.0110   23.8870 C.3       8 GLP5        0.0000 
     71 CA         18.7720  -12.9355   25.5542 C.3       4 GLC5        0.0000 
@<TRIPOS>BOND
@<TRIPOS>SUBSTRUCTURE
     1 ALC1        8 GROUP        1 X    ALC  0     ROOT ALC X 1
     2 SEC2       23 GROUP        1 X    SEC  0     **** SEC X 2
     3 ASC3       48 GROUP        1 X    ASC  0     **** ASC X 3
     4 GLC5        1 GROUP        1 X    GLC  0     **** GLC X 6
     5 ALP1       10 GROUP        1 Y    ALP  0     ROOT ALP Y 8
     6 SEP2       25 GROUP        1 Y    SEP  0     **** SEP Y 9
     7 ASP3       50 GROUP        1 Y    ASP  0     **** ASP Y 10
     8 GLP5        3 GROUP        1 Y    GLP  0     **** GLP Y 13
     9 ALL1        9 GROUP        1 Z    ALL  0     ROOT ALL Z 15
    10 SEL2       24 GROUP        1 Z    SEL  0     **** SEL Z 16
    11 ASL3       49 GROUP        1 Z    ASL  0     **** ASL Z 17
    12 GLL5        2 GROUP        1 Z    GLL  0     **** GLL Z 20
@<TRIPOS>SET

