#    Name: 3ldx_NLI_1_ligand
#    Modification time : Mon Mar 24 21:33:22 2014

@<TRIPOS>MOLECULE
3ldx_NLI_1_ligand
   54    55     1     0     0
SMALL
NO_CHARGES


@<TRIPOS>ATOM
      1 C01        20.1720  -13.2440   20.0340 C.3       1 NLI1        0.0000 
      2 C02        19.2340  -14.0380   20.9210 C.2       1 NLI1        0.0000 
      3 C03        19.6330  -15.2500   21.4450 C.2       1 NLI1        0.0000 
      4 N04        18.9950  -15.9350   22.4650 N.2       1 NLI1        0.0000 
      5 C05        17.7990  -15.5380   22.8160 C.2       1 NLI1        0.0000 
      6 N06        17.0660  -16.1520   23.9050 N.pl3     1 NLI1        0.0000 
      7 C07        17.6300  -17.3870   24.4750 C.3       1 NLI1        0.0000 
      8 C08        18.3480  -17.0880   25.8870 C.3       1 NLI1        0.0000 
      9 F09        17.4900  -16.4580   26.7160 F         1 NLI1        0.0000 
     10 F10        18.6130  -18.2360   26.4950 F         1 NLI1        0.0000 
     11 C11        19.6110  -16.2030   25.7770 C.ar      1 NLI1        0.0000 
     12 C12        20.7870  -16.7180   25.2380 C.ar      1 NLI1        0.0000 
     13 C13        21.9410  -15.9300   25.1270 C.ar      1 NLI1        0.0000 
     14 C14        21.9240  -14.5980   25.5400 C.ar      1 NLI1        0.0000 
     15 C15        20.7450  -14.0890   26.0810 C.ar      1 NLI1        0.0000 
     16 C16        19.6010  -14.8790   26.2000 C.ar      1 NLI1        0.0000 
     17 C17        17.2980  -14.1870   22.4340 C.2       1 NLI1        0.0000 
     18 O18        16.2390  -13.7290   22.8400 O.2       1 NLI1        0.0000 
     19 N19        18.0590  -13.4750   21.4400 N.am      1 NLI1        0.0000 
     20 C20        17.5090  -12.1670   21.0270 C.3       1 NLI1        0.0000 
     21 C21        16.0760  -12.4030   20.4900 C.2       1 NLI1        0.0000 
     22 O22        15.7440  -13.5630   20.2640 O.2       1 NLI1        0.0000 
     23 N23        15.1310  -11.4690   20.9000 N.am      1 NLI1        0.0000 
     24 C24        13.7860  -11.3730   20.2690 C.3       1 NLI1        0.0000 
     25 C25        12.8760  -10.5630   21.2480 C.3       1 NLI1        0.0000 
     26 O26        12.8160  -11.5330   22.3070 O.3       1 NLI1        0.0000 
     27 N27        12.5150  -10.9460   23.4800 N.pl3     1 NLI1        0.0000 
     28 C28        11.2540  -11.5260   24.0250 C.cat     1 NLI1        0.0000 
     29 N29        10.9960  -12.7850   24.0590 N.pl3     1 NLI1        0.0000 
     30 N30        10.4120  -10.6040   24.7370 N.pl3     1 NLI1        0.0000 
     31 H          20.5101  -15.7008   21.0290 H         1 NLI1        0.0000 
     32 H          16.2309  -15.7707   24.2544 H         1 NLI1        0.0000 
     33 H          18.3901  -17.8210   23.8309 H         1 NLI1        0.0000 
     34 H          16.8621  -18.1300   24.6733 H         1 NLI1        0.0000 
     35 H          20.8137  -17.6996   24.9123 H         1 NLI1        0.0000 
     36 H          22.8006  -16.3380   24.7397 H         1 NLI1        0.0000 
     37 H          22.7498  -14.0145   25.4486 H         1 NLI1        0.0000 
     38 H          20.7164  -13.1039   26.4017 H         1 NLI1        0.0000 
     39 H          18.7430  -14.4754   26.6051 H         1 NLI1        0.0000 
     40 H          18.0989  -11.7300   20.2349 H         1 NLI1        0.0000 
     41 H          17.4482  -11.4888   21.8653 H         1 NLI1        0.0000 
     42 H          15.3279  -10.8048   21.6603 H         1 NLI1        0.0000 
     43 H          13.3506  -12.3460   20.1364 H         1 NLI1        0.0000 
     44 H          13.8327  -10.8393   19.3379 H         1 NLI1        0.0000 
     45 H          11.9534  -10.4149   20.7773 H         1 NLI1        0.0000 
     46 H          13.3925   -9.6944   21.5188 H         1 NLI1        0.0000 
     47 H          12.9787  -10.2645   23.9527 H         1 NLI1        0.0000 
     48 H          10.1204  -13.0439   24.4667 H         1 NLI1        0.0000 
     49 H          11.6950  -13.3879   23.6746 H         1 NLI1        0.0000 
     50 H          10.7205   -9.6530   24.7587 H         1 NLI1        0.0000 
     51 H           9.5880  -10.9905   25.1513 H         1 NLI1        0.0000 
     52 H          21.0194  -13.0061   20.5086 H         1 NLI1        0.0000 
     53 H          20.4290  -13.7550   19.2137 H         1 NLI1        0.0000 
     54 H          19.7571  -12.3872   19.7276 H         1 NLI1        0.0000 
@<TRIPOS>BOND
     1    2    1 1    
     2   52    1 1    
     3   53    1 1    
     4   54    1 1    
     5    3    2 2    
     6   19    2 1    
     7    4    3 1    
     8   31    3 1    
     9    5    4 2    
    10    6    5 1    
    11   17    5 1    
    12    7    6 1    
    13   32    6 1    
    14    8    7 1    
    15   33    7 1    
    16   34    7 1    
    17    9    8 1    
    18   10    8 1    
    19   11    8 1    
    20   12   11 ar   
    21   16   11 ar   
    22   13   12 ar   
    23   35   12 1    
    24   14   13 ar   
    25   36   13 1    
    26   15   14 ar   
    27   37   14 1    
    28   16   15 ar   
    29   38   15 1    
    30   39   16 1    
    31   18   17 2    
    32   19   17 am   
    33   20   19 1    
    34   21   20 1    
    35   40   20 1    
    36   41   20 1    
    37   22   21 2    
    38   23   21 am   
    39   24   23 1    
    40   42   23 1    
    41   25   24 1    
    42   43   24 1    
    43   44   24 1    
    44   26   25 1    
    45   45   25 1    
    46   46   25 1    
    47   27   26 1    
    48   28   27 ar   
    49   47   27 1    
    50   29   28 ar   
    51   30   28 ar   
    52   48   29 1    
    53   49   29 1    
    54   50   30 1    
    55   51   30 1    
@<TRIPOS>SUBSTRUCTURE
     1 NLI1        1 GROUP   
@<TRIPOS>SET

