#    Name: 3fzl_3FD_1_INTS_M
#    Modification time : Tue Mar 25 06:47:56 2014

@<TRIPOS>MOLECULE
3fzl_3FD_1_INTS_M
   57     0     9     0     0
SMALL
NO_CHARGES


@<TRIPOS>ATOM
      1 N          19.5185   -1.6150   -0.3700 N.am      2 SEC2        0.0000 
      2 N          19.2670   -3.1480   -0.0020 N.am      8 SEL2        0.0000 
      3 N          19.7700   -0.0820   -0.7380 N.am      5 SEP2        0.0000 
      4 CA         19.0615   -5.7515   -3.7010 C.3       3 GLC5        0.0000 
      5 CA         18.9450   -4.7020   -1.8820 C.3       9 GLL5        0.0000 
      6 CA         19.1780   -6.8010   -5.5200 C.3       6 GLP5        0.0000 
      7 N          18.1160   -6.2760   -3.4960 N.am      2 SEC2        0.0000 
      8 N          18.0380   -5.5010   -2.4690 N.am      8 SEL2        0.0000 
      9 N          18.1940   -7.0510   -4.5230 N.am      5 SEP2        0.0000 
     10 CA         16.0155   -6.5070   -0.3205 C.3       3 GLC5        0.0000 
     11 CA         16.8080   -5.6150   -1.9610 C.3       9 GLL5        0.0000 
     12 CA         15.2230   -7.3990    1.3200 C.3       6 GLP5        0.0000 
     13 CA         18.3165   -6.9925   -1.3650 C.3       3 GLC5        0.0000 
     14 CA         19.8250   -8.3700   -0.7690 C.3       6 GLP5        0.0000 
     15 CA         17.9930   -6.2080   -3.7405 C.3       3 GLC5        0.0000 
     16 CA         17.4745   -3.9825   -3.2310 C.3       3 GLC5        0.0000 
     17 CA         18.1410   -2.3500   -4.5010 C.3       6 GLP5        0.0000 
     18 CA         15.3710   -5.7540   -3.1530 C.3       3 GLC5        0.0000 
     19 CA         13.9340   -5.8930   -4.3450 C.3       6 GLP5        0.0000 
     20 CA         16.2800   -5.7650    0.5275 C.3       3 GLC5        0.0000 
     21 CA         17.3370   -4.1310   -0.2650 C.3       9 GLL5        0.0000 
     22 CA         15.5955   -3.0115   -1.0320 C.3       3 GLC5        0.0000 
     23 CA         13.8540   -1.8920   -1.7990 C.3       6 GLP5        0.0000 
     24 CA         16.1980   -1.2985    0.6350 C.3       3 GLC5        0.0000 
     25 CA         16.0120   -3.2070    1.6900 C.3       9 GLL5        0.0000 
     26 CA         16.3840    0.6100   -0.4200 C.3       6 GLP5        0.0000 
     27 CA         14.9330   -2.5495   -0.0545 C.3       3 GLC5        0.0000 
     28 N          15.2200   -6.0810    2.8010 N.am      2 SEC2        0.0000 
     29 N          16.1420   -5.1160    3.1450 N.am      8 SEL2        0.0000 
     30 N          14.2980   -7.0460    2.4570 N.am      5 SEP2        0.0000 
     31 O          17.1075   -5.7560    3.7860 O.2       1 ALC1        0.0000 
     32 O          16.1420   -5.1160    3.1450 O.2       7 ALL1        0.0000 
     33 O          18.0730   -6.3960    4.4270 O.2       4 ALP1        0.0000 
     34 N          14.2045   -5.4580    3.1750 N.am      2 SEC2        0.0000 
     35 N          14.1110   -3.8700    3.8930 N.am      8 SEL2        0.0000 
     36 CA         17.2240    0.4805    6.8090 C.3       3 GLC5        0.0000 
     37 CA         17.5550    0.3470    4.9460 C.3       9 GLL5        0.0000 
     38 CA         16.8930    0.6140    8.6720 C.3       6 GLP5        0.0000 
     39 CA         20.5880   -5.1830    4.1775 C.3       3 GLC5        0.0000 
     40 CA         20.9200   -4.3100    6.0730 C.3       9 GLL5        0.0000 
     41 CA         20.2560   -6.0560    2.2820 C.3       6 GLP5        0.0000 
     42 CA         21.1992   -4.7468    3.3970 C.3       3 GLC5        0.0000 
     43 CA         21.4720   -3.4240    4.6810 C.3       9 GLL5        0.0000 
     44 CA         20.5310   -4.1997    2.8125 C.3       3 GLC5        0.0000 
     45 CA         20.5770   -2.6950    3.9070 C.3       9 GLL5        0.0000 
     46 CA         19.4297   -2.9495   -2.2492 C.3       3 GLC5        0.0000 
     47 CA         18.5960   -3.9940   -0.7730 C.3       9 GLL5        0.0000 
     48 CA         20.0890   -1.5510   -3.1710 C.3       6 GLP5        0.0000 
     49 CA         18.8264   -5.5723    0.2164 C.3       3 GLC5        0.0000 
     50 CA         19.5990   -6.9050    1.2290 C.3       6 GLP5        0.0000 
     51 CA         15.6928   -5.4260    1.8545 C.3       3 GLC5        0.0000 
     52 CA         13.4175   -1.4125    4.1169 C.3       3 GLC5        0.0000 
     53 CA         15.2690   -3.0580    3.9110 C.3       9 GLL5        0.0000 
     54 CA         11.4960   -1.3770    4.4560 C.3       6 GLP5        0.0000 
     55 CA         20.7655    2.9685    5.5438 C.3       3 GLC5        0.0000 
     56 CA         19.8650    1.0690    5.0150 C.3       9 GLL5        0.0000 
     57 CA         21.0140    4.9520    5.8480 C.3       6 GLP5        0.0000 
@<TRIPOS>BOND
@<TRIPOS>SUBSTRUCTURE
     1 ALC1       31 GROUP        1 X    ALC  0     ROOT ALC X 1
     2 SEC2        1 GROUP        1 X    SEC  0     **** SEC X 2
     3 GLC5        4 GROUP        1 X    GLC  0     **** GLC X 6
     4 ALP1       33 GROUP        1 Y    ALP  0     ROOT ALP Y 8
     5 SEP2        3 GROUP        1 Y    SEP  0     **** SEP Y 9
     6 GLP5        6 GROUP        1 Y    GLP  0     **** GLP Y 13
     7 ALL1       32 GROUP        1 Z    ALL  0     ROOT ALL Z 15
     8 SEL2        2 GROUP        1 Z    SEL  0     **** SEL Z 16
     9 GLL5        5 GROUP        1 Z    GLL  0     **** GLL Z 20
@<TRIPOS>SET

