#    Name: 3fzl_3FD_1_ligand
#    Modification time : Tue Mar 25 06:47:56 2014

@<TRIPOS>MOLECULE
3fzl_3FD_1_ligand
   61    65     1     0     0
SMALL
NO_CHARGES


@<TRIPOS>ATOM
      1 C18        22.3800   -2.0350    2.4330 C.ar      1 3FD401      0.0000 
      2 C17        23.2740   -2.7680    3.2190 C.ar      1 3FD401      0.0000 
      3 C16        22.8130   -3.4510    4.3430 C.ar      1 3FD401      0.0000 
      4 CL20       23.9060   -4.3470    5.3070 Cl        1 3FD401      0.0000 
      5 C15        21.4720   -3.4240    4.6810 C.ar      1 3FD401      0.0000 
      6 C14        20.5770   -2.6950    3.9070 C.ar      1 3FD401      0.0000 
      7 C13        21.0350   -1.9920    2.7790 C.ar      1 3FD401      0.0000 
      8 C12        20.0550   -1.1960    1.9320 C.3       1 3FD401      0.0000 
      9 N11        18.7500   -1.8680    1.9440 N.pl3     1 3FD401      0.0000 
     10 C6         18.4450   -2.7440    0.9860 C.2       1 3FD401      0.0000 
     11 N7         19.2670   -3.1480   -0.0020 N.2       1 3FD401      0.0000 
     12 C8         18.5960   -3.9940   -0.7730 C.ar      1 3FD401      0.0000 
     13 C4         18.9450   -4.7020   -1.8820 C.ar      1 3FD401      0.0000 
     14 N10        20.1740   -4.5930   -2.3860 N.pl3     1 3FD401      0.0000 
     15 N1         18.0380   -5.5010   -2.4690 N.ar      1 3FD401      0.0000 
     16 C2         16.8080   -5.6150   -1.9610 C.ar      1 3FD401      0.0000 
     17 N3         16.4590   -4.9400   -0.8710 N.ar      1 3FD401      0.0000 
     18 C9         17.3370   -4.1310   -0.2650 C.ar      1 3FD401      0.0000 
     19 N5         17.2460   -3.3630    0.8150 N.pl3     1 3FD401      0.0000 
     20 C21        16.0120   -3.2070    1.6900 C.3       1 3FD401      0.0000 
     21 O22        15.7020   -1.8070    1.8630 O.3       1 3FD401      0.0000 
     22 C24        16.3130   -3.6990    3.0880 C.3       1 3FD401      0.0000 
     23 O26        16.1420   -5.1160    3.1450 O.3       1 3FD401      0.0000 
     24 C25        15.2690   -3.0580    3.9110 C.3       1 3FD401      0.0000 
     25 O27        14.1110   -3.8700    3.8930 O.3       1 3FD401      0.0000 
     26 C23        14.9790   -1.7160    3.1880 C.3       1 3FD401      0.0000 
     27 C28        15.5540   -0.5090    4.0060 C.3       1 3FD401      0.0000 
     28 O29        16.9950   -0.6260    4.0570 O.3       1 3FD401      0.0000 
     29 C30        17.5550    0.3470    4.9460 C.3       1 3FD401      0.0000 
     30 C31        18.8680    0.1820    5.4160 C.ar      1 3FD401      0.0000 
     31 C32        19.8650    1.0690    5.0150 C.ar      1 3FD401      0.0000 
     32 C33        21.1690    0.9010    5.4640 C.ar      1 3FD401      0.0000 
     33 C34        21.4900   -0.1640    6.3200 C.ar      1 3FD401      0.0000 
     34 C37        22.8510   -0.3190    6.7980 C.1       1 3FD401      0.0000 
     35 N38        23.9390   -0.4370    7.1390 N.1       1 3FD401      0.0000 
     36 C35        20.4930   -1.0590    6.7290 C.ar      1 3FD401      0.0000 
     37 C36        19.1790   -0.8880    6.2800 C.ar      1 3FD401      0.0000 
     38 CL21       20.9200   -4.3100    6.0730 Cl        1 3FD401      0.0000 
     39 H          22.7189   -1.5329    1.6061 H         1 3FD401      0.0000 
     40 H          24.2680   -2.8019    2.9671 H         1 3FD401      0.0000 
     41 H          19.5817   -2.6654    4.1526 H         1 3FD401      0.0000 
     42 H          20.4458   -1.1297    0.9170 H         1 3FD401      0.0000 
     43 H          19.9753   -0.1904    2.3441 H         1 3FD401      0.0000 
     44 H          18.1163   -1.6235    2.7127 H         1 3FD401      0.0000 
     45 H          20.3812   -5.1772   -3.1707 H         1 3FD401      0.0000 
     46 H          20.7783   -3.9369   -1.9340 H         1 3FD401      0.0000 
     47 H          16.1101   -6.2469   -2.4313 H         1 3FD401      0.0000 
     48 H          15.2027   -3.7427    1.2949 H         1 3FD401      0.0000 
     49 H          17.2601   -3.3719    3.3769 H         1 3FD401      0.0000 
     50 H          15.6337   -2.8445    4.8679 H         1 3FD401      0.0000 
     51 H          13.9533   -1.6040    3.0432 H         1 3FD401      0.0000 
     52 H          15.1064   -0.5490    4.9946 H         1 3FD401      0.0000 
     53 H          15.2362    0.3997    3.5035 H         1 3FD401      0.0000 
     54 H          16.8427    0.4674    5.8425 H         1 3FD401      0.0000 
     55 H          17.4546    1.3833    4.4545 H         1 3FD401      0.0000 
     56 H          19.6333    1.8489    4.3854 H         1 3FD401      0.0000 
     57 H          21.9058    1.5556    5.1719 H         1 3FD401      0.0000 
     58 H          20.7258   -1.8352    7.3543 H         1 3FD401      0.0000 
     59 H          18.4436   -1.5338    6.5745 H         1 3FD401      0.0000 
     60 H          16.9389   -5.4528    3.6466 H         1 3FD401      0.0000 
     61 H          14.4260   -4.7629    3.5711 H         1 3FD401      0.0000 
@<TRIPOS>BOND
     1    2    1 ar   
     2    7    1 ar   
     3   39    1 1    
     4    3    2 ar   
     5   40    2 1    
     6    4    3 1    
     7    5    3 ar   
     8    6    5 ar   
     9   38    5 1    
    10    7    6 ar   
    11   41    6 1    
    12    8    7 1    
    13    9    8 1    
    14   42    8 1    
    15   43    8 1    
    16   10    9 1    
    17   44    9 1    
    18   11   10 2    
    19   19   10 1    
    20   12   11 1    
    21   13   12 ar   
    22   18   12 ar   
    23   14   13 1    
    24   15   13 ar   
    25   45   14 1    
    26   46   14 1    
    27   16   15 ar   
    28   17   16 ar   
    29   47   16 1    
    30   18   17 ar   
    31   19   18 1    
    32   20   19 1    
    33   21   20 1    
    34   22   20 1    
    35   48   20 1    
    36   26   21 1    
    37   23   22 1    
    38   24   22 1    
    39   49   22 1    
    40   60   23 1    
    41   25   24 1    
    42   26   24 1    
    43   50   24 1    
    44   61   25 1    
    45   27   26 1    
    46   51   26 1    
    47   28   27 1    
    48   52   27 1    
    49   53   27 1    
    50   29   28 1    
    51   30   29 1    
    52   54   29 1    
    53   55   29 1    
    54   31   30 ar   
    55   37   30 ar   
    56   32   31 ar   
    57   56   31 1    
    58   33   32 ar   
    59   57   32 1    
    60   34   33 1    
    61   36   33 ar   
    62   35   34 3    
    63   37   36 ar   
    64   58   36 1    
    65   59   37 1    
@<TRIPOS>SUBSTRUCTURE
     1 3FD401      1 GROUP   
@<TRIPOS>SET

