#    Name: 1GG5_1_CAVITY_N1_6.mol2
#    Modification time : Tue Mar 11 01:31:01 2014

@<TRIPOS>MOLECULE
1GG5_1_CAVITY_N1_6.mol2
  119     0     6     0     0
SMALL
NO_CHARGES


@<TRIPOS>ATOM
      1 CZ        -18.2514    7.8310   -8.4873 C.ar      4 PHE5        0.0000 
      2 CZ        -18.7329    7.2920   -7.1729 C.ar      4 PHE5        0.0000 
      3 CZ        -19.2145    6.7531   -5.8585 C.ar      4 PHE5        0.0000 
      4 CZ        -19.2040    6.9240   -9.2083 C.ar      4 PHE5        0.0000 
      5 N         -19.6855    6.3850   -7.8939 N.2       2 ALA2        0.0000 
      6 OG        -20.1671    5.8461   -6.5795 O.2       1 SER1        0.0000 
      7 OG        -20.6486    5.3071   -5.2651 O.2       1 SER1        0.0000 
      8 N         -20.6382    5.4780   -8.6148 N.2       2 ALA2        0.0000 
      9 N         -21.1197    4.9390   -7.3004 N.2       2 ALA2        0.0000 
     10 DU        -21.6013    4.4001   -5.9860 H         6 CUB7        0.0000 
     11 DU        -22.0828    3.8611   -4.6716 H         6 CUB7        0.0000 
     12 N         -22.0724    4.0320   -8.0213 N.2       2 ALA2        0.0000 
     13 DU        -22.5539    3.4930   -6.7069 H         6 CUB7        0.0000 
     14 CA        -23.5170    2.4151   -4.0781 C.3       5 GLY6        0.0000 
     15 CA        -23.0250    3.1249   -8.7423 C.3       5 GLY6        0.0000 
     16 CA        -23.5066    2.5860   -7.4279 C.3       5 GLY6        0.0000 
     17 DU        -23.9881    2.0470   -6.1135 H         6 CUB7        0.0000 
     18 N         -24.4697    1.5081   -4.7991 N.2       2 ALA2        0.0000 
     19 N         -13.0834    4.4732   -7.9708 N.2       2 ALA2        0.0000 
     20 CZ        -13.5649    3.9342   -6.6564 C.ar      4 PHE5        0.0000 
     21 CZ        -14.0464    3.3953   -5.3420 C.ar      4 PHE5        0.0000 
     22 OG        -14.5280    2.8563   -4.0276 O.2       1 SER1        0.0000 
     23 OG        -15.9726    1.2395   -0.0844 O.2       1 SER1        0.0000 
     24 N         -14.0360    3.5661   -8.6917 N.2       2 ALA2        0.0000 
     25 N         -14.5175    3.0272   -7.3773 N.2       2 ALA2        0.0000 
     26 N         -14.9991    2.4882   -6.0629 N.2       2 ALA2        0.0000 
     27 OG        -15.4806    1.9493   -4.7485 O.2       1 SER1        0.0000 
     28 OG        -15.9622    1.4103   -3.4341 O.2       1 SER1        0.0000 
     29 OG        -16.4437    0.8714   -2.1197 O.2       1 SER1        0.0000 
     30 CA        -16.9253    0.3324   -0.8053 C.3       5 GLY6        0.0000 
     31 N         -15.4702    2.1201   -8.0982 N.2       2 ALA2        0.0000 
     32 N         -15.9517    1.5812   -6.7838 N.2       2 ALA2        0.0000 
     33 CA        -16.4333    1.0422   -5.4694 C.3       5 GLY6        0.0000 
     34 CZ        -16.9148    0.5033   -4.1550 C.ar      4 PHE5        0.0000 
     35 CZ        -17.6686    6.3967  -10.5737 C.ar      4 PHE5        0.0000 
     36 CZ        -18.1502    5.8577   -9.2593 C.ar      4 PHE5        0.0000 
     37 CZ        -18.6317    5.3188   -7.9449 C.ar      4 PHE5        0.0000 
     38 OG        -19.1133    4.7798   -6.6306 O.2       1 SER1        0.0000 
     39 OG        -19.5948    4.2409   -5.3162 O.2       1 SER1        0.0000 
     40 OG        -20.0764    3.7019   -4.0018 O.2       1 SER1        0.0000 
     41 N         -19.1028    4.9507   -9.9803 N.2       2 ALA2        0.0000 
     42 N         -19.5844    4.4117   -8.6659 N.2       2 ALA2        0.0000 
     43 DU        -20.0659    3.8728   -7.3515 H         6 CUB7        0.0000 
     44 DU        -20.5475    3.3339   -6.0371 H         6 CUB7        0.0000 
     45 CA        -21.0290    2.7949   -4.7227 C.3       5 GLY6        0.0000 
     46 N         -20.5370    3.5047   -9.3868 N.2       2 ALA2        0.0000 
     47 N         -21.0186    2.9658   -8.0724 N.2       2 ALA2        0.0000 
     48 DU        -21.5001    2.4268   -6.7580 H         6 CUB7        0.0000 
     49 DU        -21.9816    1.8879   -5.4436 H         6 CUB7        0.0000 
     50 CA        -22.4632    1.3489   -4.1292 C.3       5 GLY6        0.0000 
     51 CA        -21.9712    2.0587   -8.7933 C.3       5 GLY6        0.0000 
     52 CA        -22.4527    1.5198   -7.4790 C.3       5 GLY6        0.0000 
     53 DU        -22.9343    0.9808   -6.1646 H         6 CUB7        0.0000 
     54 NZ        -23.8869    0.0738   -6.8855 N.2       3 LYS4        0.0000 
     55 CZ        -20.2578    7.9902   -9.1572 C.ar      4 PHE5        0.0000 
     56 CZ        -14.7095    7.1446   -9.1830 C.ar      4 PHE5        0.0000 
     57 CA        -15.6621    6.2375   -9.9039 C.3       5 GLY6        0.0000 
     58 CZ        -16.1437    5.6986   -8.5895 C.ar      4 PHE5        0.0000 
     59 CA        -16.6148    5.3305  -10.6248 C.3       5 GLY6        0.0000 
     60 N         -17.0963    4.7915   -9.3104 N.2       2 ALA2        0.0000 
     61 CZ        -17.5779    4.2526   -7.9960 C.ar      4 PHE5        0.0000 
     62 OG        -18.0594    3.7136   -6.6816 O.2       1 SER1        0.0000 
     63 OG        -18.5410    3.1747   -5.3672 O.2       1 SER1        0.0000 
     64 CA        -19.0225    2.6357   -4.0528 C.3       5 GLY6        0.0000 
     65 N         -18.5305    3.3455   -8.7170 N.2       2 ALA2        0.0000 
     66 CA        -19.0121    2.8066   -7.4026 C.3       5 GLY6        0.0000 
     67 OG        -19.4936    2.2676   -6.0882 O.2       1 SER1        0.0000 
     68 CA        -19.9752    1.7287   -4.7738 C.3       5 GLY6        0.0000 
     69 CA        -19.9647    1.8995   -8.1235 C.3       5 GLY6        0.0000 
     70 OG        -20.4463    1.3606   -6.8091 O.2       1 SER1        0.0000 
     71 OG        -20.9278    0.8216   -5.4947 O.2       1 SER1        0.0000 
     72 CA        -20.9174    0.9925   -8.8444 C.3       5 GLY6        0.0000 
     73 OG        -21.3989    0.4536   -7.5300 O.2       1 SER1        0.0000 
     74 OG        -21.8805   -0.0854   -6.2156 O.2       1 SER1        0.0000 
     75 CA        -22.3516   -0.4535   -8.2510 C.3       5 GLY6        0.0000 
     76 CZ        -14.1372    5.5394   -7.9197 C.ar      4 PHE5        0.0000 
     77 CA        -14.6083    5.1713   -9.9550 C.3       5 GLY6        0.0000 
     78 CZ        -15.0898    4.6324   -8.6406 C.ar      4 PHE5        0.0000 
     79 CZ        -15.5714    4.0934   -7.3262 C.ar      4 PHE5        0.0000 
     80 OG        -16.0529    3.5545   -6.0118 O.2       1 SER1        0.0000 
     81 OG        -17.0160    2.4766   -3.3830 O.2       1 SER1        0.0000 
     82 O         -16.0425    3.7253   -9.3615 O.2       2 ALA2        0.0000 
     83 O         -16.5240    3.1864   -8.0471 O.2       2 ALA2        0.0000 
     84 OG        -17.0056    2.6474   -6.7327 O.2       1 SER1        0.0000 
     85 OG        -17.4871    2.1085   -5.4183 O.2       1 SER1        0.0000 
     86 CA        -17.9687    1.5695   -4.1039 C.3       5 GLY6        0.0000 
     87 CA        -17.9582    1.7404   -7.4537 C.3       5 GLY6        0.0000 
     88 CA        -18.4398    1.2014   -6.1393 C.3       5 GLY6        0.0000 
     89 CA        -18.9213    0.6625   -4.8249 C.3       5 GLY6        0.0000 
     90 OG        -19.3924    0.2944   -6.8602 O.2       1 SER1        0.0000 
     91 N         -24.0789    4.1911   -8.6912 N.2       2 ALA2        0.0000 
     92 N         -25.5131    2.7452   -8.0977 N.2       2 ALA2        0.0000 
     93 O         -24.9408    1.1400   -6.8344 O.2       2 ALA2        0.0000 
     94 CZ        -15.7633    8.2108   -9.1319 C.ar      4 PHE5        0.0000 
     95 CZ        -16.7160    7.3037   -9.8528 C.ar      4 PHE5        0.0000 
     96 CZ        -17.1975    6.7648   -8.5384 C.ar      4 PHE5        0.0000 
     97 CZ        -10.5046    2.7088   -6.0376 C.ar      4 PHE5        0.0000 
     98 CZ        -10.9861    2.1699   -4.7232 C.ar      4 PHE5        0.0000 
     99 CZ        -11.4677    1.6309   -3.4088 C.ar      4 PHE5        0.0000 
    100 N         -11.4572    1.8018   -6.7586 N.2       2 ALA2        0.0000 
    101 N         -11.9388    1.2629   -5.4442 N.2       2 ALA2        0.0000 
    102 N         -12.4203    0.7239   -4.1298 N.2       2 ALA2        0.0000 
    103 CZ        -12.9019    0.1850   -2.8154 C.ar      4 PHE5        0.0000 
    104 CZ        -12.0400    3.2361   -4.6721 C.ar      4 PHE5        0.0000 
    105 CZ        -12.5215    2.6972   -3.3577 C.ar      4 PHE5        0.0000 
    106 N         -12.0295    3.4070   -8.0219 N.2       2 ALA2        0.0000 
    107 CZ        -12.5111    2.8680   -6.7075 C.ar      4 PHE5        0.0000 
    108 N         -12.9926    2.3291   -5.3931 N.2       2 ALA2        0.0000 
    109 OG        -13.4742    1.7901   -4.0787 O.2       1 SER1        0.0000 
    110 OG        -13.9557    1.2512   -2.7643 O.2       1 SER1        0.0000 
    111 OG        -14.4373    0.7122   -1.4499 O.2       1 SER1        0.0000 
    112 CA        -14.9188    0.1733   -0.1355 C.3       5 GLY6        0.0000 
    113 N         -12.9822    2.4999   -8.7428 N.2       2 ALA2        0.0000 
    114 O         -13.4637    1.9610   -7.4284 O.2       2 ALA2        0.0000 
    115 N         -13.9453    1.4220   -6.1140 N.2       2 ALA2        0.0000 
    116 N         -14.4268    0.8831   -4.7996 N.2       2 ALA2        0.0000 
    117 CZ        -14.9084    0.3441   -3.4852 C.ar      4 PHE5        0.0000 
    118 CZ        -15.3899   -0.1948   -2.1708 C.ar      4 PHE5        0.0000 
    119 CZ        -15.8715   -0.7338   -0.8564 C.ar      4 PHE5        0.0000 
@<TRIPOS>BOND
@<TRIPOS>SUBSTRUCTURE
     1 SER1        6 GROUP   
     2 ALA2        5 GROUP   
     3 LYS4       54 GROUP   
     4 PHE5        1 GROUP   
     5 GLY6       14 GROUP   
     6 CUB7       10 GROUP   
@<TRIPOS>SET

