#    Name: 1gg5_E09_1_INTS_M
#    Modification time : Tue Mar 25 03:12:15 2014

@<TRIPOS>MOLECULE
1gg5_E09_1_INTS_M
   42     0     6     0     0
SMALL
NO_CHARGES


@<TRIPOS>ATOM
      1 N         -12.1335    3.8000   -9.2115 N.am      1 SEC2        0.0000 
      2 N         -13.0890    3.3100   -8.0840 N.am      5 SEL2        0.0000 
      3 N         -11.1780    4.2900  -10.3390 N.am      3 SEP2        0.0000 
      4 CA         -9.9340    4.2110   -7.0340 C.3       2 GLC5        0.0000 
      5 CA        -10.0770    2.2610   -7.6800 C.3       6 GLL5        0.0000 
      6 CA         -9.7910    6.1610   -6.3880 C.3       4 GLP5        0.0000 
      7 CA        -10.4060    2.9420   -9.5685 C.3       2 GLC5        0.0000 
      8 CA        -10.7350    3.6230  -11.4570 C.3       4 GLP5        0.0000 
      9 CA         -9.2820    3.3310   -5.2310 C.3       2 GLC5        0.0000 
     10 CA         -9.7100    1.6920   -6.3950 C.3       6 GLL5        0.0000 
     11 CA         -8.8540    4.9700   -4.0670 C.3       4 GLP5        0.0000 
     12 CA         -9.2525    0.9835   -4.7010 C.3       2 GLC5        0.0000 
     13 CA         -8.7950    0.2750   -3.0070 C.3       4 GLP5        0.0000 
     14 CA        -16.1745    4.7115   -7.1770 C.3       2 GLC5        0.0000 
     15 CA        -16.1670    3.1690   -8.4240 C.3       6 GLL5        0.0000 
     16 CA        -16.1820    6.2540   -5.9300 C.3       4 GLP5        0.0000 
     17 CA        -17.2150    1.8650   -9.1480 C.3       2 GLC5        0.0000 
     18 CA        -18.2630    0.5610   -9.8720 C.3       4 GLP5        0.0000 
     19 CA        -16.0860    2.9670  -10.2135 C.3       2 GLC5        0.0000 
     20 CA        -16.0050    2.7650  -12.0030 C.3       4 GLP5        0.0000 
     21 CA        -19.5760    2.0200   -3.8990 C.3       2 GLC5        0.0000 
     22 CA        -19.2350    3.0010   -5.8640 C.3       6 GLL5        0.0000 
     23 CA        -19.9170    1.0390   -1.9340 C.3       4 GLP5        0.0000 
     24 CA        -18.0435    4.6170   -5.2840 C.3       2 GLC5        0.0000 
     25 CA        -16.8520    6.2330   -4.7040 C.3       4 GLP5        0.0000 
     26 CA        -18.2375    0.4635   -3.0510 C.3       2 GLC5        0.0000 
     27 CA        -16.8360    1.2710   -3.6620 C.3       6 GLL5        0.0000 
     28 CA        -19.6390   -0.3440   -2.4400 C.3       4 GLP5        0.0000 
     29 CA        -15.5245    2.7610   -2.6155 C.3       2 GLC5        0.0000 
     30 CA        -14.2130    4.2510   -1.5690 C.3       4 GLP5        0.0000 
     31 CA        -16.2115   -0.3380   -4.1810 C.3       2 GLC5        0.0000 
     32 CA        -15.5870   -1.9470   -4.7000 C.3       4 GLP5        0.0000 
     33 CA         -8.9608    1.3698   -8.2942 C.3       2 GLC5        0.0000 
     34 CA         -8.0280    0.7630   -9.5510 C.3       4 GLP5        0.0000 
     35 CA        -15.0536    0.6569   -6.6495 C.3       2 GLC5        0.0000 
     36 CA        -15.9230    2.6460   -7.0210 C.3       6 GLL5        0.0000 
     37 CA        -14.8120   -1.1400   -6.9210 C.3       4 GLP5        0.0000 
     38 CA        -17.4360    0.3698   -6.3842 C.3       2 GLC5        0.0000 
     39 CA        -16.8720    2.2130   -6.1370 C.3       6 GLL5        0.0000 
     40 CA        -17.2710   -1.4440   -6.5240 C.3       4 GLP5        0.0000 
     41 CA        -17.8134    1.4264   -8.1687 C.3       2 GLC5        0.0000 
     42 CA        -18.3300    2.1540   -6.3520 C.3       6 GLL5        0.0000 
@<TRIPOS>BOND
@<TRIPOS>SUBSTRUCTURE
     1 SEC2        1 GROUP        1 X    SEC  0     ROOT SEC X 2
     2 GLC5        4 GROUP        1 X    GLC  0     **** GLC X 6
     3 SEP2        3 GROUP        1 Y    SEP  0     ROOT SEP Y 9
     4 GLP5        6 GROUP        1 Y    GLP  0     **** GLP Y 13
     5 SEL2        2 GROUP        1 Z    SEL  0     ROOT SEL Z 16
     6 GLL5        5 GROUP        1 Z    GLL  0     **** GLL Z 20
@<TRIPOS>SET

