#    Name: 1gg5_E09_1_ligand
#    Modification time : Tue Mar 25 03:12:15 2014

@<TRIPOS>MOLECULE
1gg5_E09_1_ligand
   39    41     1     0     0
SMALL
NO_CHARGES


@<TRIPOS>ATOM
      1 C1        -12.0230    2.5970   -6.0060 C.2       1 E09703      0.0000 
      2 C2        -13.2240    2.8550   -6.9420 C.2       1 E09703      0.0000 
      3 C3        -14.5830    2.5290   -6.4100 C.2       1 E09703      0.0000 
      4 C4        -14.7520    1.9940   -5.0600 C.2       1 E09703      0.0000 
      5 C5        -12.2290    2.0910   -4.7430 C.2       1 E09703      0.0000 
      6 C6        -13.5640    1.7560   -4.1760 C.2       1 E09703      0.0000 
      7 O8        -13.0890    3.3100   -8.0840 O.2       1 E09703      0.0000 
      8 O9        -13.6360    1.3080   -3.0400 O.2       1 E09703      0.0000 
      9 N1        -10.6170    2.8930   -6.4370 N.pl3     1 E09703      0.0000 
     10 C11       -10.0770    2.2610   -7.6800 C.3       1 E09703      0.0000 
     11 C12        -9.7100    1.6920   -6.3950 C.3       1 E09703      0.0000 
     12 C17       -15.9230    2.6460   -7.0210 C.2       1 E09703      0.0000 
     13 C18       -16.8720    2.2130   -6.1370 C.2       1 E09703      0.0000 
     14 N19       -16.2010    1.7950   -4.8750 N.pl3     1 E09703      0.0000 
     15 C20       -16.1670    3.1690   -8.4240 C.3       1 E09703      0.0000 
     16 O21       -15.7050    4.5180   -8.5620 O.3       1 E09703      0.0000 
     17 C25       -18.3300    2.1540   -6.3520 C.3       1 E09703      0.0000 
     18 C26       -19.2350    3.0010   -5.8640 C.3       1 E09703      0.0000 
     19 C7        -20.6850    2.8600   -6.2510 C.3       1 E09703      0.0000 
     20 C31       -16.8360    1.2710   -3.6620 C.3       1 E09703      0.0000 
     21 O1        -21.5230    3.3400   -5.2000 O.3       1 E09703      0.0000 
     22 H         -11.4188    1.9135   -4.1017 H         1 E09703      0.0000 
     23 H          -9.3637    2.8095   -8.0115 H         1 E09703      0.0000 
     24 H         -10.7755    1.7409   -8.0815 H         1 E09703      0.0000 
     25 H         -10.2488    0.9227   -6.2123 H         1 E09703      0.0000 
     26 H          -8.8371    1.9914   -6.1423 H         1 E09703      0.0000 
     27 H         -17.2472    3.0919   -8.6321 H         1 E09703      0.0000 
     28 H         -15.6550    2.4955   -9.1313 H         1 E09703      0.0000 
     29 H         -18.6315    1.0368   -6.0853 H         1 E09703      0.0000 
     30 H         -18.4599    2.0514   -7.5279 H         1 E09703      0.0000 
     31 H         -18.9650    4.1010   -6.0906 H         1 E09703      0.0000 
     32 H         -19.2289    3.0231   -4.7091 H         1 E09703      0.0000 
     33 H         -20.8809    1.7998   -6.4686 H         1 E09703      0.0000 
     34 H         -20.8480    3.4212   -7.1828 H         1 E09703      0.0000 
     35 H         -16.5175    0.3483   -3.4450 H         1 E09703      0.0000 
     36 H         -16.6425    1.8429   -2.8648 H         1 E09703      0.0000 
     37 H         -17.8306    1.2236   -3.7543 H         1 E09703      0.0000 
     38 H         -14.7205    4.4729   -8.3923 H         1 E09703      0.0000 
     39 H         -20.8933    3.6882   -4.5056 H         1 E09703      0.0000 
@<TRIPOS>BOND
     1    2    1 1    
     2    5    1 2    
     3    9    1 1    
     4    3    2 1    
     5    7    2 2    
     6    4    3 2    
     7   12    3 1    
     8    6    4 1    
     9   14    4 1    
    10    6    5 1    
    11   22    5 1    
    12    8    6 2    
    13   10    9 1    
    14   11    9 1    
    15   11   10 1    
    16   23   10 1    
    17   24   10 1    
    18   25   11 1    
    19   26   11 1    
    20   13   12 2    
    21   15   12 1    
    22   14   13 1    
    23   17   13 1    
    24   20   14 1    
    25   16   15 1    
    26   27   15 1    
    27   28   15 1    
    28   38   16 1    
    29   18   17 1    
    30   29   17 1    
    31   30   17 1    
    32   19   18 1    
    33   31   18 1    
    34   32   18 1    
    35   21   19 1    
    36   33   19 1    
    37   34   19 1    
    38   35   20 1    
    39   36   20 1    
    40   37   20 1    
    41   39   21 1    
@<TRIPOS>SUBSTRUCTURE
     1 E09703      1 GROUP   
@<TRIPOS>SET

