#    Name: 4n3r_2GU_2_INTS_M
#    Modification time : Tue Mar 25 12:42:31 2014

@<TRIPOS>MOLECULE
4n3r_2GU_2_INTS_M
   85     0     9     0     0
SMALL
NO_CHARGES


@<TRIPOS>ATOM
      1 CA         34.4325   36.7675   -1.9460 C.3       3 GLC5        0.0000 
      2 CA         34.1790   38.0420   -0.3520 C.3       9 GLL5        0.0000 
      3 CA         34.6860   35.4930   -3.5400 C.3       6 GLP5        0.0000 
      4 CA         35.3385   38.7390    0.9880 C.3       3 GLC5        0.0000 
      5 CA         36.4980   39.4360    2.3280 C.3       6 GLP5        0.0000 
      6 CA         34.3080   35.5920   -1.6890 C.3       3 GLC5        0.0000 
      7 CA         33.9300   35.6910    0.1620 C.3       9 GLL5        0.0000 
      8 CA         32.0305   35.6025   -0.7030 C.3       3 GLC5        0.0000 
      9 CA         30.1310   35.5140   -1.5680 C.3       6 GLP5        0.0000 
     10 CA         34.1645   35.4155    2.0795 C.3       3 GLC5        0.0000 
     11 CA         34.3990   35.1400    3.9970 C.3       6 GLP5        0.0000 
     12 O          33.1790   33.5845    0.6475 O.2       1 ALC1        0.0000 
     13 O          34.2520   34.3920    0.1110 O.2       7 ALL1        0.0000 
     14 O          32.1060   32.7770    1.1840 O.2       4 ALP1        0.0000 
     15 N          32.3870   35.4900    2.3045 N.am      2 SEC2        0.0000 
     16 N          32.8180   35.8780    0.9070 N.am      8 SEL2        0.0000 
     17 N          31.9560   35.1020    3.7020 N.am      5 SEP2        0.0000 
     18 CA         33.3510   36.1455    2.5390 C.3       3 GLC5        0.0000 
     19 CA         32.3030   37.1510    1.0810 C.3       9 GLL5        0.0000 
     20 CA         32.0815   36.3425    3.2910 C.3       3 GLC5        0.0000 
     21 CA         31.1280   37.3860    1.8950 C.3       9 GLL5        0.0000 
     22 CA         33.0350   35.2990    4.6870 C.3       6 GLP5        0.0000 
     23 CA         29.7180   37.2915    3.6005 C.3       3 GLC5        0.0000 
     24 CA         28.3080   37.1970    5.3060 C.3       6 GLP5        0.0000 
     25 CA         29.3205   38.6955    3.6075 C.3       3 GLC5        0.0000 
     26 CA         30.6050   38.7350    2.0750 C.3       9 GLL5        0.0000 
     27 CA         28.0360   38.6560    5.1400 C.3       6 GLP5        0.0000 
     28 CA         33.4595   41.3245    2.2110 C.3       3 GLC5        0.0000 
     29 CA         31.6490   42.4820    1.6560 C.3       9 GLL5        0.0000 
     30 CA         35.2700   40.1670    2.7660 C.3       6 GLP5        0.0000 
     31 CA         30.7640   46.3800    3.2780 C.3       3 GLC5        0.0000 
     32 CA         29.3420   45.3310    2.0300 C.3       9 GLL5        0.0000 
     33 CA         32.1860   47.4290    4.5260 C.3       6 GLP5        0.0000 
     34 CA         28.4890   45.9600    0.2940 C.3       3 GLC5        0.0000 
     35 CA         27.6360   46.5890   -1.4420 C.3       6 GLP5        0.0000 
     36 N          25.4810   42.0095    2.9840 N.am      2 SEC2        0.0000 
     37 N          26.4350   42.4530    2.1620 N.am      8 SEL2        0.0000 
     38 N          24.5270   41.5660    3.8060 N.am      5 SEP2        0.0000 
     39 CA         26.4530   42.7305   -1.9625 C.3       3 GLC5        0.0000 
     40 CA         25.1370   43.5080   -0.3380 C.3       9 GLL5        0.0000 
     41 CA         27.7690   41.9530   -3.5870 C.3       6 GLP5        0.0000 
     42 O          24.0610   42.7155   -2.5825 O.2       1 ALC1        0.0000 
     43 O          23.0650   43.1850   -1.4850 O.2       7 ALL1        0.0000 
     44 O          25.0570   42.2460   -3.6800 O.2       4 ALP1        0.0000 
     45 N          22.2210   41.2085   -2.9870 N.am      2 SEC2        0.0000 
     46 N          21.3040   42.0900   -2.0670 N.am      8 SEL2        0.0000 
     47 N          23.1380   40.3270   -3.9070 N.am      5 SEP2        0.0000 
     48 N          20.2795   41.7575   -2.7460 N.am      2 SEC2        0.0000 
     49 N          19.2550   41.4250   -3.4250 N.am      5 SEP2        0.0000 
     50 CA         18.9750   43.3940   -0.6110 C.3       3 GLC5        0.0000 
     51 CA         20.8940   44.0470   -0.7790 C.3       9 GLL5        0.0000 
     52 CA         17.0560   42.7410   -0.4430 C.3       6 GLP5        0.0000 
     53 CA         19.2330   45.0630   -1.4295 C.3       3 GLC5        0.0000 
     54 CA         17.5720   46.0790   -2.0800 C.3       6 GLP5        0.0000 
     55 CA         20.4100   43.7095   -2.7525 C.3       3 GLC5        0.0000 
     56 CA         19.9260   43.3720   -4.7260 C.3       6 GLP5        0.0000 
     57 CA         19.8955   46.9795   -1.8515 C.3       3 GLC5        0.0000 
     58 CA         21.7100   46.4540   -1.4540 C.3       9 GLL5        0.0000 
     59 CA         18.0810   47.5050   -2.2490 C.3       6 GLP5        0.0000 
     60 CA         23.0580   46.0185   -2.7740 C.3       3 GLC5        0.0000 
     61 CA         24.4060   45.5830   -4.0940 C.3       6 GLP5        0.0000 
     62 CA         19.2160   45.9235   -0.6275 C.3       3 GLC5        0.0000 
     63 CA         20.8600   45.7680    0.8250 C.3       9 GLL5        0.0000 
     64 CA         19.5840   46.3405    2.3260 C.3       3 GLC5        0.0000 
     65 CA         18.3080   46.9130    3.8270 C.3       6 GLP5        0.0000 
     66 CA         32.7308   38.8923   -1.5081 C.3       3 GLC5        0.0000 
     67 CA         32.0160   39.2810   -3.1060 C.3       6 GLP5        0.0000 
     68 CA         30.8953   35.6043    2.0580 C.3       3 GLC5        0.0000 
     69 CA         30.0750   33.9400    2.6280 C.3       6 GLP5        0.0000 
     70 CA         31.0098   36.5354   -0.1214 C.3       3 GLC5        0.0000 
     71 CA         33.6213   39.8015    1.8776 C.3       3 GLC5        0.0000 
     72 CA         32.4290   39.6260    0.6330 C.3       9 GLL5        0.0000 
     73 CA         31.7906   42.8071    3.5392 C.3       3 GLC5        0.0000 
     74 CA         31.2470   43.8380    1.7940 C.3       9 GLL5        0.0000 
     75 CA         32.3600   42.7400    5.3740 C.3       6 GLP5        0.0000 
     76 CA         24.3075   43.7140    1.6480 C.3       3 GLC5        0.0000 
     77 CA         25.8030   44.3940    0.6100 C.3       9 GLL5        0.0000 
     78 CA         23.1450   43.4770    3.1600 C.3       6 GLP5        0.0000 
     79 CA         23.8400   44.5862    2.1187 C.3       3 GLC5        0.0000 
     80 CA         23.8610   45.8680    0.9330 C.3       9 GLL5        0.0000 
     81 CA         23.2990   43.9617    1.4207 C.3       3 GLC5        0.0000 
     82 CA         23.1370   45.0140   -0.0150 C.3       9 GLL5        0.0000 
     83 CA         24.1005   44.9684   -2.1707 C.3       3 GLC5        0.0000 
     84 CA         22.2075   44.5100    1.6893 C.3       3 GLC5        0.0000 
     85 CA         21.6800   45.3180   -0.3880 C.3       9 GLL5        0.0000 
@<TRIPOS>BOND
@<TRIPOS>SUBSTRUCTURE
     1 ALC1       12 GROUP        1 X    ALC  0     ROOT ALC X 1
     2 SEC2       15 GROUP        1 X    SEC  0     **** SEC X 2
     3 GLC5        1 GROUP        1 X    GLC  0     **** GLC X 6
     4 ALP1       14 GROUP        1 Y    ALP  0     ROOT ALP Y 8
     5 SEP2       17 GROUP        1 Y    SEP  0     **** SEP Y 9
     6 GLP5        3 GROUP        1 Y    GLP  0     **** GLP Y 13
     7 ALL1       13 GROUP        1 Z    ALL  0     ROOT ALL Z 15
     8 SEL2       16 GROUP        1 Z    SEL  0     **** SEL Z 16
     9 GLL5        2 GROUP        1 Z    GLL  0     **** GLL Z 20
@<TRIPOS>SET

