#    Name: 4n3r_2GU_2_ligand
#    Modification time : Tue Mar 25 12:42:31 2014

@<TRIPOS>MOLECULE
4n3r_2GU_2_ligand
   56    60     1     0     0
SMALL
NO_CHARGES


@<TRIPOS>ATOM
      1 C1         32.4290   39.6260    0.6330 C.ar      1 2GU1402     0.0000 
      2 C2         32.9950   38.3040    0.4300 C.ar      1 2GU1402     0.0000 
      3 C3         34.1790   38.0420   -0.3520 C.ar      1 2GU1402     0.0000 
      4 N1         34.6340   36.7380   -0.4700 N.ar      1 2GU1402     0.0000 
      5 C4         33.9300   35.6910    0.1620 C.ar      1 2GU1402     0.0000 
      6 N2         34.2520   34.3920    0.1110 N.pl3     1 2GU1402     0.0000 
      7 N3         32.8180   35.8780    0.9070 N.ar      1 2GU1402     0.0000 
      8 C5         32.3030   37.1510    1.0810 C.ar      1 2GU1402     0.0000 
      9 C6         31.1280   37.3860    1.8950 C.ar      1 2GU1402     0.0000 
     10 C7         30.6050   38.7350    2.0750 C.ar      1 2GU1402     0.0000 
     11 C8         31.2330   39.9070    1.4470 C.ar      1 2GU1402     0.0000 
     12 C9         30.7420   41.3390    1.5740 C.ar      1 2GU1402     0.0000 
     13 C10        29.3290   41.6190    1.6290 C.ar      1 2GU1402     0.0000 
     14 C11        31.6490   42.4820    1.6560 C.ar      1 2GU1402     0.0000 
     15 C12        31.2470   43.8380    1.7940 C.ar      1 2GU1402     0.0000 
     16 C13        29.8080   44.0610    1.8530 C.ar      1 2GU1402     0.0000 
     17 F1         29.3420   45.3310    2.0300 F         1 2GU1402     0.0000 
     18 C14        28.8460   42.9600    1.7620 C.ar      1 2GU1402     0.0000 
     19 C15        27.3630   43.1180    1.7110 C.2       1 2GU1402     0.0000 
     20 O1         26.4350   42.4530    2.1620 O.2       1 2GU1402     0.0000 
     21 N4         27.0860   44.1910    0.9970 N.am      1 2GU1402     0.0000 
     22 C16        25.8030   44.3940    0.6100 C.ar      1 2GU1402     0.0000 
     23 C17        25.1370   43.5080   -0.3380 C.ar      1 2GU1402     0.0000 
     24 C18        25.2090   45.5230    1.2220 C.ar      1 2GU1402     0.0000 
     25 C19        23.8610   45.8680    0.9330 C.ar      1 2GU1402     0.0000 
     26 C20        23.1370   45.0140   -0.0150 C.ar      1 2GU1402     0.0000 
     27 C21        23.7690   43.8790   -0.6220 C.ar      1 2GU1402     0.0000 
     28 N5         23.0650   43.1850   -1.4850 N.am      1 2GU1402     0.0000 
     29 C22        21.7250   43.0310   -1.4820 C.2       1 2GU1402     0.0000 
     30 O2         21.3040   42.0900   -2.0670 O.2       1 2GU1402     0.0000 
     31 C23        20.8940   44.0470   -0.7790 C.3       1 2GU1402     0.0000 
     32 C24        21.6800   45.3180   -0.3880 C.3       1 2GU1402     0.0000 
     33 C25        21.7100   46.4540   -1.4540 C.3       1 2GU1402     0.0000 
     34 C26        20.8600   45.7680    0.8250 C.3       1 2GU1402     0.0000 
     35 H          32.8929   40.4347    0.1766 H         1 2GU1402     0.0000 
     36 H          34.6535   38.8189   -0.7991 H         1 2GU1402     0.0000 
     37 H          35.2285   34.1824    0.0604 H         1 2GU1402     0.0000 
     38 H          33.4871   33.7481    0.1281 H         1 2GU1402     0.0000 
     39 H          30.6622   36.6080    2.3454 H         1 2GU1402     0.0000 
     40 H          29.7777   38.8757    2.6537 H         1 2GU1402     0.0000 
     41 H          28.6654   40.8454    1.5718 H         1 2GU1402     0.0000 
     42 H          32.6755   42.2681    1.6077 H         1 2GU1402     0.0000 
     43 H          31.8795   44.5839    1.8473 H         1 2GU1402     0.0000 
     44 H          27.8182   44.8726    0.7294 H         1 2GU1402     0.0000 
     45 H          25.5743   42.7469   -0.7349 H         1 2GU1402     0.0000 
     46 H          25.7486   46.0938    1.8742 H         1 2GU1402     0.0000 
     47 H          23.4094   46.6487    1.3435 H         1 2GU1402     0.0000 
     48 H          23.6025   42.6781   -2.2881 H         1 2GU1402     0.0000 
     49 H          20.4646   43.6165    0.1406 H         1 2GU1402     0.0000 
     50 H          20.0481   44.3531   -1.4163 H         1 2GU1402     0.0000 
     51 H          22.1458   47.2823   -1.1019 H         1 2GU1402     0.0000 
     52 H          22.2159   46.1819   -2.2726 H         1 2GU1402     0.0000 
     53 H          20.7897   46.7101   -1.7498 H         1 2GU1402     0.0000 
     54 H          20.8400   45.0689    1.5398 H         1 2GU1402     0.0000 
     55 H          21.2331   46.5988    1.2380 H         1 2GU1402     0.0000 
     56 H          19.9105   45.9635    0.5796 H         1 2GU1402     0.0000 
@<TRIPOS>BOND
     1    2    1 ar   
     2   11    1 ar   
     3   35    1 1    
     4    3    2 ar   
     5    8    2 ar   
     6    4    3 ar   
     7   36    3 1    
     8    5    4 ar   
     9    6    5 1    
    10    7    5 ar   
    11   37    6 1    
    12   38    6 1    
    13    8    7 ar   
    14    9    8 ar   
    15   10    9 ar   
    16   39    9 1    
    17   11   10 ar   
    18   40   10 1    
    19   12   11 1    
    20   13   12 ar   
    21   14   12 ar   
    22   18   13 ar   
    23   41   13 1    
    24   15   14 ar   
    25   42   14 1    
    26   16   15 ar   
    27   43   15 1    
    28   17   16 1    
    29   18   16 ar   
    30   19   18 1    
    31   20   19 2    
    32   21   19 am   
    33   22   21 1    
    34   44   21 1    
    35   23   22 ar   
    36   24   22 ar   
    37   27   23 ar   
    38   45   23 1    
    39   25   24 ar   
    40   46   24 1    
    41   26   25 ar   
    42   47   25 1    
    43   27   26 ar   
    44   32   26 1    
    45   28   27 1    
    46   29   28 am   
    47   48   28 1    
    48   30   29 2    
    49   31   29 1    
    50   32   31 1    
    51   49   31 1    
    52   50   31 1    
    53   33   32 1    
    54   34   32 1    
    55   51   33 1    
    56   52   33 1    
    57   53   33 1    
    58   54   34 1    
    59   55   34 1    
    60   56   34 1    
@<TRIPOS>SUBSTRUCTURE
     1 2GU1402     1 GROUP   
@<TRIPOS>SET

