#    Name: 2aaz_CB3_8_INTS_M
#    Modification time : Mon Mar 24 18:55:17 2014

@<TRIPOS>MOLECULE
2aaz_CB3_8_INTS_M
   53     0     9     0     0
SMALL
NO_CHARGES


@<TRIPOS>ATOM
      1 O         178.1985   48.3960   13.9105 O.2       1 ALC1        0.0000 
      2 O         178.0860   48.5340   15.2980 O.2       7 ALL1        0.0000 
      3 O         178.3110   48.2580   12.5230 O.2       4 ALP1        0.0000 
      4 O         179.3780   50.6370   13.9405 O.2       1 ALC1        0.0000 
      5 O         179.7820   50.2220   15.2540 O.2       7 ALL1        0.0000 
      6 O         178.9740   51.0520   12.6270 O.2       4 ALP1        0.0000 
      7 N         179.7165   50.2205   17.9470 N.am      2 SEC2        0.0000 
      8 N         179.0370   49.2610   17.2210 N.am      8 SEL2        0.0000 
      9 N         180.3960   51.1800   18.6730 N.am      5 SEP2        0.0000 
     10 CA        173.7335   44.3685   17.3360 C.3       3 GLC5        0.0000 
     11 CA        174.0370   45.9370   18.1720 C.3       9 GLL5        0.0000 
     12 CA        173.4300   42.8000   16.5000 C.3       6 GLP5        0.0000 
     13 CA        175.9290   44.8300   18.1425 C.3       3 GLC5        0.0000 
     14 CA        177.8210   43.7230   18.1130 C.3       6 GLP5        0.0000 
     15 CA        174.0780   47.5515   22.8815 C.3       3 GLC5        0.0000 
     16 CA        173.6790   48.5380   20.9870 C.3       9 GLL5        0.0000 
     17 CA        174.4770   46.5650   24.7760 C.3       6 GLP5        0.0000 
     18 CA        174.4520   54.1285   21.5745 C.3       3 GLC5        0.0000 
     19 CA        172.6990   54.0950   21.5160 C.3       9 GLL5        0.0000 
     20 CA        176.2050   54.1620   21.6330 C.3       6 GLP5        0.0000 
     21 CA        169.4700   52.8295   24.1360 C.3       3 GLC5        0.0000 
     22 CA        170.3420   53.8610   22.4330 C.3       9 GLL5        0.0000 
     23 CA        168.5980   51.7980   25.8390 C.3       6 GLP5        0.0000 
     24 CA        171.8285   45.8115   20.4440 C.3       3 GLC5        0.0000 
     25 CA        173.7570   45.5700   20.5900 C.3       9 GLL5        0.0000 
     26 CA        169.9000   46.0530   20.2980 C.3       6 GLP5        0.0000 
     27 CA        172.9185   46.3025   22.3530 C.3       3 GLC5        0.0000 
     28 CA        172.0800   47.0350   24.1160 C.3       6 GLP5        0.0000 
     29 CA        176.9805   44.6090   19.9680 C.3       3 GLC5        0.0000 
     30 CA        176.1400   45.4950   21.8230 C.3       9 GLL5        0.0000 
     31 CA        176.1227   49.1080   16.0057 C.3       3 GLC5        0.0000 
     32 CA        177.2510   47.7190   17.3510 C.3       9 GLL5        0.0000 
     33 CA        175.0070   50.4750   15.3640 C.3       6 GLP5        0.0000 
     34 CA        178.9617   47.0190   17.1728 C.3       3 GLC5        0.0000 
     35 CA        177.2260   47.7630   15.9440 C.3       9 GLL5        0.0000 
     36 CA        180.6850   46.2970   17.6980 C.3       6 GLP5        0.0000 
     37 CA        176.5125   45.5160   14.3243 C.3       3 GLC5        0.0000 
     38 CA        175.2310   46.3670   15.9950 C.3       9 GLL5        0.0000 
     39 CA        177.3020   44.3160   13.0410 C.3       6 GLP5        0.0000 
     40 CA        175.3650   48.5955   15.4858 C.3       3 GLC5        0.0000 
     41 CA        176.2150   47.0650   15.2200 C.3       9 GLL5        0.0000 
     42 CA        176.6639   45.1275   17.4954 C.3       3 GLC5        0.0000 
     43 CA        174.1187   50.0260   17.0035 C.3       3 GLC5        0.0000 
     44 CA        173.2830   48.8830   18.5670 C.3       9 GLL5        0.0000 
     45 CA        171.7401   48.5185   19.0910 C.3       3 GLC5        0.0000 
     46 CA        173.1780   50.2710   18.7190 C.3       9 GLL5        0.0000 
     47 CA        170.0950   48.2700   19.0200 C.3       6 GLP5        0.0000 
     48 CA        171.6806   49.3090   20.5197 C.3       3 GLC5        0.0000 
     49 CA        169.8050   49.1640   20.2440 C.3       6 GLP5        0.0000 
     50 CA        176.9878   46.7855   21.9840 C.3       3 GLC5        0.0000 
     51 CA        175.0990   45.5330   21.2290 C.3       9 GLL5        0.0000 
     52 CA        178.3560   48.0570   22.4420 C.3       6 GLP5        0.0000 
     53 CA        175.0482   46.0395   23.1510 C.3       3 GLC5        0.0000 
@<TRIPOS>BOND
@<TRIPOS>SUBSTRUCTURE
     1 ALC1        1 GROUP        1 X    ALC  0     ROOT ALC X 1
     2 SEC2        7 GROUP        1 X    SEC  0     **** SEC X 2
     3 GLC5       10 GROUP        1 X    GLC  0     **** GLC X 6
     4 ALP1        3 GROUP        1 Y    ALP  0     ROOT ALP Y 8
     5 SEP2        9 GROUP        1 Y    SEP  0     **** SEP Y 9
     6 GLP5       12 GROUP        1 Y    GLP  0     **** GLP Y 13
     7 ALL1        2 GROUP        1 Z    ALL  0     ROOT ALL Z 15
     8 SEL2        8 GROUP        1 Z    SEL  0     **** SEL Z 16
     9 GLL5       11 GROUP        1 Z    GLL  0     **** GLL Z 20
@<TRIPOS>SET

