#    Name: 2aaz_CB3_8_ligand
#    Modification time : Mon Mar 24 18:55:17 2014

@<TRIPOS>MOLECULE
2aaz_CB3_8_ligand
   55    57     1     0     0
SMALL
NO_CHARGES


@<TRIPOS>ATOM
      1 N1        178.0860   48.5340   15.2980 N.pl3     1 CB32701     0.0000 
      2 C2        178.9780   49.3630   15.9050 C.2       1 CB32701     0.0000 
      3 NA2       179.7820   50.2220   15.2540 N.pl3     1 CB32701     0.0000 
      4 N3        179.0370   49.2610   17.2210 N.2       1 CB32701     0.0000 
      5 C4        178.2140   48.4870   17.9660 C.2       1 CB32701     0.0000 
      6 O4        178.2620   48.4510   19.2850 O.2       1 CB32701     0.0000 
      7 C4A       177.2510   47.7190   17.3510 C.ar      1 CB32701     0.0000 
      8 C5        176.3110   47.0400   18.0930 C.ar      1 CB32701     0.0000 
      9 C6        175.2540   46.3540   17.4280 C.ar      1 CB32701     0.0000 
     10 C7        175.2310   46.3670   15.9950 C.ar      1 CB32701     0.0000 
     11 C8        176.2150   47.0650   15.2200 C.ar      1 CB32701     0.0000 
     12 C8A       177.2260   47.7630   15.9440 C.ar      1 CB32701     0.0000 
     13 C9        174.0370   45.9370   18.1720 C.3       1 CB32701     0.0000 
     14 N10       173.7800   46.5700   19.4830 N.pl3     1 CB32701     0.0000 
     15 C11       173.3000   50.7970   20.0370 C.ar      1 CB32701     0.0000 
     16 C12       173.1780   50.2710   18.7190 C.ar      1 CB32701     0.0000 
     17 C13       173.2830   48.8830   18.5670 C.ar      1 CB32701     0.0000 
     18 C14       173.5400   47.9570   19.6810 C.ar      1 CB32701     0.0000 
     19 C15       173.6790   48.5380   20.9870 C.ar      1 CB32701     0.0000 
     20 C16       173.5670   49.9430   21.1710 C.ar      1 CB32701     0.0000 
     21 C         173.0980   52.1820   20.1960 C.2       1 CB32701     0.0000 
     22 O         173.1400   52.9690   19.2460 O.2       1 CB32701     0.0000 
     23 N         172.8610   52.6420   21.4200 N.am      1 CB32701     0.0000 
     24 CA        172.6990   54.0950   21.5160 C.3       1 CB32701     0.0000 
     25 CB        171.2090   54.4120   21.3220 C.3       1 CB32701     0.0000 
     26 CG        170.3420   53.8610   22.4330 C.3       1 CB32701     0.0000 
     27 CD        168.8460   53.9580   22.1310 C.2       1 CB32701     0.0000 
     28 OE1       168.3500   53.1850   21.2900 O.co2     1 CB32701     0.0000 
     29 OE2       168.1760   54.8060   22.7340 O.co2     1 CB32701     0.0000 
     30 CT        173.1100   54.4400   22.9400 C.2       1 CB32701     0.0000 
     31 O1        173.1830   53.5060   23.7630 O.co2     1 CB32701     0.0000 
     32 O2        173.3380   55.6420   23.2110 O.co2     1 CB32701     0.0000 
     33 CP1       173.7570   45.5700   20.5900 C.3       1 CB32701     0.0000 
     34 CP2       175.0990   45.5330   21.2290 C.1       1 CB32701     0.0000 
     35 CP3       176.1400   45.4950   21.8230 C.1       1 CB32701     0.0000 
     36 H         178.0922   48.5150   14.2244 H         1 CB32701     0.0000 
     37 H         180.3902   50.7739   15.8245 H         1 CB32701     0.0000 
     38 H         179.7000   50.2323   14.2574 H         1 CB32701     0.0000 
     39 H         176.3520   47.0152   19.1135 H         1 CB32701     0.0000 
     40 H         174.4817   45.8573   15.5046 H         1 CB32701     0.0000 
     41 H         176.1904   47.0603   14.2283 H         1 CB32701     0.0000 
     42 H         174.0655   44.8161   18.3076 H         1 CB32701     0.0000 
     43 H         173.1377   46.0964   17.5076 H         1 CB32701     0.0000 
     44 H         173.0231   50.8803   17.9379 H         1 CB32701     0.0000 
     45 H         173.1777   48.4544   17.6246 H         1 CB32701     0.0000 
     46 H         173.8599   47.9307   21.7867 H         1 CB32701     0.0000 
     47 H         173.6725   50.3542   22.0907 H         1 CB32701     0.0000 
     48 H         172.7869   52.0992   22.2491 H         1 CB32701     0.0000 
     49 H         173.2816   54.6012   20.8313 H         1 CB32701     0.0000 
     50 H         170.8835   53.9931   20.3605 H         1 CB32701     0.0000 
     51 H         171.0865   55.5019   21.2672 H         1 CB32701     0.0000 
     52 H         170.5508   54.4077   23.3644 H         1 CB32701     0.0000 
     53 H         170.5996   52.8060   22.6081 H         1 CB32701     0.0000 
     54 H         173.5094   44.5876   20.1915 H         1 CB32701     0.0000 
     55 H         173.0049   45.8533   21.3244 H         1 CB32701     0.0000 
@<TRIPOS>BOND
     1    2    1 1    
     2   12    1 1    
     3   36    1 1    
     4    3    2 1    
     5    4    2 2    
     6   37    3 1    
     7   38    3 1    
     8    5    4 1    
     9    6    5 2    
    10    7    5 1    
    11    8    7 ar   
    12   12    7 ar   
    13    9    8 ar   
    14   39    8 1    
    15   10    9 ar   
    16   13    9 1    
    17   11   10 ar   
    18   40   10 1    
    19   12   11 ar   
    20   41   11 1    
    21   14   13 1    
    22   42   13 1    
    23   43   13 1    
    24   18   14 1    
    25   33   14 1    
    26   16   15 ar   
    27   20   15 ar   
    28   21   15 1    
    29   17   16 ar   
    30   44   16 1    
    31   18   17 ar   
    32   45   17 1    
    33   19   18 ar   
    34   20   19 ar   
    35   46   19 1    
    36   47   20 1    
    37   22   21 2    
    38   23   21 am   
    39   24   23 1    
    40   48   23 1    
    41   25   24 1    
    42   30   24 1    
    43   49   24 1    
    44   26   25 1    
    45   50   25 1    
    46   51   25 1    
    47   27   26 1    
    48   52   26 1    
    49   53   26 1    
    50   28   27 ar   
    51   29   27 ar   
    52   31   30 ar   
    53   32   30 ar   
    54   34   33 1    
    55   54   33 1    
    56   55   33 1    
    57   35   34 3    
@<TRIPOS>SUBSTRUCTURE
     1 CB32701     1 GROUP   
@<TRIPOS>SET

