#    Name: 2o4j_VD4_1_INTS_M
#    Modification time : Tue Mar 25 21:59:32 2014

@<TRIPOS>MOLECULE
2o4j_VD4_1_INTS_M
  114     0     9     0     0
SMALL
NO_CHARGES


@<TRIPOS>ATOM
      1 N          65.5545   -1.9770   -8.7225 N.am      2 SEC2        0.0000 
      2 N          66.0780   -2.2520   -7.5030 N.am      8 SEL2        0.0000 
      3 N          65.0310   -1.7020   -9.9420 N.am      5 SEP2        0.0000 
      4 N          64.9385   -2.9995   -7.1630 N.am      2 SEC2        0.0000 
      5 N          63.7990   -3.7470   -6.8230 N.am      5 SEP2        0.0000 
      6 CA         69.7045   -0.4415   -7.8055 C.3       3 GLC5        0.0000 
      7 CA         68.1700   -1.2490   -7.2550 C.3       9 GLL5        0.0000 
      8 CA         71.2390    0.3660   -8.3560 C.3       6 GLP5        0.0000 
      9 CA         68.2955   -2.1185   -9.0495 C.3       3 GLC5        0.0000 
     10 CA         68.4210   -2.9880  -10.8440 C.3       6 GLP5        0.0000 
     11 CA         70.1255   -1.8795   -6.6785 C.3       3 GLC5        0.0000 
     12 CA         72.0810   -2.5100   -6.1020 C.3       6 GLP5        0.0000 
     13 CA         66.1685   -0.2690   -4.0495 C.3       3 GLC5        0.0000 
     14 CA         66.7170   -1.6540   -5.2520 C.3       9 GLL5        0.0000 
     15 CA         65.6200    1.1160   -2.8470 C.3       6 GLP5        0.0000 
     16 CA         66.0635   -2.9930   -3.7505 C.3       3 GLC5        0.0000 
     17 CA         65.4100   -4.3320   -2.2490 C.3       6 GLP5        0.0000 
     18 CA         63.6390   -1.7660   -7.2080 C.3       3 GLC5        0.0000 
     19 CA         64.5270    0.0530   -6.7210 C.3       9 GLL5        0.0000 
     20 CA         62.7510   -3.5850   -7.6950 C.3       6 GLP5        0.0000 
     21 CA         63.2360    2.3690   -8.9340 C.3       3 GLC5        0.0000 
     22 CA         63.7350    1.2920   -7.1990 C.3       9 GLL5        0.0000 
     23 CA         62.7370    3.4460  -10.6690 C.3       6 GLP5        0.0000 
     24 CA         61.6845   -1.2170   -5.4095 C.3       3 GLC5        0.0000 
     25 CA         61.5610   -0.1030   -7.1510 C.3       9 GLL5        0.0000 
     26 CA         61.8080   -2.3310   -3.6680 C.3       6 GLP5        0.0000 
     27 CA         59.7500   -0.8990   -6.7795 C.3       3 GLC5        0.0000 
     28 CA         57.9390   -1.6950   -6.4080 C.3       6 GLP5        0.0000 
     29 CA         61.0580   -0.9385   -8.9825 C.3       3 GLC5        0.0000 
     30 CA         60.5550   -1.7740  -10.8140 C.3       6 GLP5        0.0000 
     31 CA         62.1560   -1.8440   -7.4230 C.3       3 GLC5        0.0000 
     32 CA         64.2995    2.1245   -3.5100 C.3       3 GLC5        0.0000 
     33 CA         62.9790    3.1330   -4.1730 C.3       9 GLL5        0.0000 
     34 CA         64.6520    5.0310   -7.0905 C.3       3 GLC5        0.0000 
     35 CA         62.7520    4.3780   -6.3790 C.3       9 GLL5        0.0000 
     36 CA         66.5520    5.6840   -7.8020 C.3       6 GLP5        0.0000 
     37 CA         64.8395    6.2615   -5.6300 C.3       3 GLC5        0.0000 
     38 CA         62.9010    5.7980   -5.7400 C.3       9 GLL5        0.0000 
     39 CA         66.7780    6.7250   -5.5200 C.3       6 GLP5        0.0000 
     40 CA         63.9555    6.2435   -3.9150 C.3       3 GLC5        0.0000 
     41 CA         65.0100    6.6890   -2.0900 C.3       6 GLP5        0.0000 
     42 CA         60.0445    7.1985   -5.5920 C.3       3 GLC5        0.0000 
     43 CA         61.5560    6.3180   -5.1950 C.3       9 GLL5        0.0000 
     44 CA         58.5330    8.0790   -5.9890 C.3       6 GLP5        0.0000 
     45 CA         60.3800    2.1825   -2.4775 C.3       3 GLC5        0.0000 
     46 CA         59.8290    2.8210   -4.4700 C.3       9 GLL5        0.0000 
     47 CA         60.9310    1.5440   -0.4850 C.3       6 GLP5        0.0000 
     48 CA         59.0380    4.9805   -5.9200 C.3       3 GLC5        0.0000 
     49 CA         60.6800    3.9330   -5.0930 C.3       9 GLL5        0.0000 
     50 CA         57.3960    6.0280   -6.7470 C.3       6 GLP5        0.0000 
     51 CA         59.2945    6.0950   -5.0510 C.3       3 GLC5        0.0000 
     52 CA         60.9060    5.2250   -4.3410 C.3       9 GLL5        0.0000 
     53 CA         57.6830    6.9650   -5.7610 C.3       6 GLP5        0.0000 
     54 CA         63.3735    5.9950    0.1765 C.3       3 GLC5        0.0000 
     55 CA         61.4140    5.4710   -0.0630 C.3       9 GLL5        0.0000 
     56 CA         65.3330    6.5190    0.4160 C.3       6 GLP5        0.0000 
     57 CA         59.4005    4.5090    2.1850 C.3       3 GLC5        0.0000 
     58 CA         60.7390    5.6080    1.3160 C.3       9 GLL5        0.0000 
     59 CA         58.0620    3.4100    3.0540 C.3       6 GLP5        0.0000 
     60 N          60.9000    4.3770    3.6565 N.am      2 SEC2        0.0000 
     61 N          61.0800    4.4990    2.1930 N.am      8 SEL2        0.0000 
     62 N          60.7200    4.2550    5.1200 N.am      5 SEP2        0.0000 
     63 O          62.4350    4.0690    2.2450 O.2       1 ALC1        0.0000 
     64 O          61.0800    4.4990    2.1930 O.2       7 ALL1        0.0000 
     65 O          63.7900    3.6390    2.2970 O.2       4 ALP1        0.0000 
     66 CA         59.3940    8.4495    2.7995 C.3       3 GLC5        0.0000 
     67 CA         60.7520    8.1160    1.1380 C.3       9 GLL5        0.0000 
     68 CA         58.0360    8.7830    4.4610 C.3       6 GLP5        0.0000 
     69 CA         60.7105    9.6095    2.3605 C.3       3 GLC5        0.0000 
     70 CA         60.6690   11.1030    3.5830 C.3       6 GLP5        0.0000 
     71 CA         59.4140    9.6420    0.4960 C.3       3 GLC5        0.0000 
     72 CA         58.0760   11.1680   -0.1460 C.3       6 GLP5        0.0000 
     73 N          58.6555    8.7380    2.1250 N.am      2 SEC2        0.0000 
     74 N          59.3120    8.1580    1.0580 N.am      8 SEL2        0.0000 
     75 N          57.9990    9.3180    3.1920 N.am      5 SEP2        0.0000 
     76 O          58.8035    9.0885    0.0600 O.2       1 ALC1        0.0000 
     77 O          59.3120    8.1580    1.0580 O.2       7 ALL1        0.0000 
     78 O          58.2950   10.0190   -0.9380 O.2       4 ALP1        0.0000 
     79 CA         61.2190    9.0720    3.3380 C.3       3 GLC5        0.0000 
     80 CA         61.7690    7.0410    3.0930 C.3       9 GLL5        0.0000 
     81 CA         65.6335   -0.5445   -8.7220 C.3       3 GLC5        0.0000 
     82 CA         66.0450    0.0710   -7.0080 C.3       9 GLL5        0.0000 
     83 CA         64.8750   -0.4900  -10.5720 C.3       6 GLP5        0.0000 
     84 CA         65.4530    0.5890   -4.8558 C.3       3 GLC5        0.0000 
     85 CA         64.5030    0.0913   -8.7660 C.3       3 GLC5        0.0000 
     86 CA         59.4895    2.2988   -7.2180 C.3       3 GLC5        0.0000 
     87 CA         61.6050    2.0550   -5.9730 C.3       9 GLL5        0.0000 
     88 CA         58.0900    2.6910   -8.6860 C.3       6 GLP5        0.0000 
     89 CA         62.5048    5.4420   -7.9508 C.3       3 GLC5        0.0000 
     90 CA         62.1830    5.7960   -9.8420 C.3       6 GLP5        0.0000 
     91 CA         62.6932    8.0410   -6.1747 C.3       3 GLC5        0.0000 
     92 CA         63.1580   10.0240   -6.8820 C.3       6 GLP5        0.0000 
     93 CA         58.4955    1.0848   -4.6902 C.3       3 GLC5        0.0000 
     94 CA         56.9900   -0.1200   -4.3820 C.3       6 GLP5        0.0000 
     95 CA         59.2060    5.3887   -2.5643 C.3       3 GLC5        0.0000 
     96 CA         57.6420    5.4800   -1.4500 C.3       6 GLP5        0.0000 
     97 CA         59.2692    7.0730   -3.2490 C.3       3 GLC5        0.0000 
     98 CA         60.6340    5.3700   -3.0160 C.3       9 GLL5        0.0000 
     99 CA         57.7930    8.1440   -3.8650 C.3       6 GLP5        0.0000 
    100 CA         59.3315    6.0773   -1.5203 C.3       3 GLC5        0.0000 
    101 CA         61.1850    6.7150   -0.9310 C.3       9 GLL5        0.0000 
    102 CA         61.0037    3.5417    0.0708 C.3       3 GLC5        0.0000 
    103 CA         59.3593    5.5098   -0.4117 C.3       3 GLC5        0.0000 
    104 CA         62.8660    8.8390    1.1402 C.3       3 GLC5        0.0000 
    105 CA         61.3620    8.0740   -0.2730 C.3       9 GLL5        0.0000 
    106 CA         64.6750    9.5830    1.8480 C.3       6 GLP5        0.0000 
    107 CA         63.1008    7.0316   -1.5109 C.3       3 GLC5        0.0000 
    108 CA         61.4580    9.7875    0.0392 C.3       3 GLC5        0.0000 
    109 CA         61.8590   11.4800   -0.3540 C.3       6 GLP5        0.0000 
    110 CA         59.8295    7.1837    3.5707 C.3       3 GLC5        0.0000 
    111 CA         61.1430    6.9020    1.9360 C.3       9 GLL5        0.0000 
    112 CA         58.2030    7.3960    4.6270 C.3       6 GLP5        0.0000 
    113 CA         63.0655    8.2773    2.1812 C.3       3 GLC5        0.0000 
    114 CA         63.3945    6.7453    1.4652 C.3       3 GLC5        0.0000 
@<TRIPOS>BOND
@<TRIPOS>SUBSTRUCTURE
     1 ALC1       63 GROUP        1 X    ALC  0     ROOT ALC X 1
     2 SEC2        1 GROUP        1 X    SEC  0     **** SEC X 2
     3 GLC5        6 GROUP        1 X    GLC  0     **** GLC X 6
     4 ALP1       65 GROUP        1 Y    ALP  0     ROOT ALP Y 8
     5 SEP2        3 GROUP        1 Y    SEP  0     **** SEP Y 9
     6 GLP5        8 GROUP        1 Y    GLP  0     **** GLP Y 13
     7 ALL1       64 GROUP        1 Z    ALL  0     ROOT ALL Z 15
     8 SEL2        2 GROUP        1 Z    SEL  0     **** SEL Z 16
     9 GLL5        7 GROUP        1 Z    GLL  0     **** GLL Z 20
@<TRIPOS>SET

