#    Name: 2o4j_VD4_1_ligand
#    Modification time : Tue Mar 25 21:59:32 2014

@<TRIPOS>MOLECULE
2o4j_VD4_1_ligand
   70    72     1     0     0
SMALL
NO_CHARGES


@<TRIPOS>ATOM
      1 O3         66.0780   -2.2520   -7.5030 O.3       1 VD4500      0.0000 
      2 C25        66.7390   -1.2690   -6.7360 C.3       1 VD4500      0.0000 
      3 C26        68.1700   -1.2490   -7.2550 C.3       1 VD4500      0.0000 
      4 C27        66.7170   -1.6540   -5.2520 C.3       1 VD4500      0.0000 
      5 C24        66.0450    0.0710   -7.0080 C.3       1 VD4500      0.0000 
      6 C23        64.5270    0.0530   -6.7210 C.3       1 VD4500      0.0000 
      7 C22        63.7350    1.2920   -7.1990 C.3       1 VD4500      0.0000 
      8 C20        62.2900    1.1450   -6.7360 C.2       1 VD4500      0.0000 
      9 C21        61.5610   -0.1030   -7.1510 C.3       1 VD4500      0.0000 
     10 C17        61.6050    2.0550   -5.9730 C.2       1 VD4500      0.0000 
     11 C13        62.0810    3.3840   -5.4160 C.3       1 VD4500      0.0000 
     12 C18        62.9790    3.1330   -4.1730 C.3       1 VD4500      0.0000 
     13 C12        62.7520    4.3780   -6.3790 C.3       1 VD4500      0.0000 
     14 C11        62.9010    5.7980   -5.7400 C.3       1 VD4500      0.0000 
     15 C9         61.5560    6.3180   -5.1950 C.3       1 VD4500      0.0000 
     16 C16        60.1730    1.7580   -5.5270 C.3       1 VD4500      0.0000 
     17 C15        59.8290    2.8210   -4.4700 C.3       1 VD4500      0.0000 
     18 C14        60.6800    3.9330   -5.0930 C.3       1 VD4500      0.0000 
     19 C8         60.9060    5.2250   -4.3410 C.2       1 VD4500      0.0000 
     20 C7         60.6340    5.3700   -3.0160 C.2       1 VD4500      0.0000 
     21 C6         60.8570    6.6340   -2.2500 C.2       1 VD4500      0.0000 
     22 C5         61.1850    6.7150   -0.9310 C.2       1 VD4500      0.0000 
     23 C10        61.4140    5.4710   -0.0630 C.3       1 VD4500      0.0000 
     24 C1         60.7390    5.6080    1.3160 C.3       1 VD4500      0.0000 
     25 O1         61.0800    4.4990    2.1930 O.3       1 VD4500      0.0000 
     26 C4         61.3620    8.0740   -0.2730 C.3       1 VD4500      0.0000 
     27 C3         60.7520    8.1160    1.1380 C.3       1 VD4500      0.0000 
     28 O2         59.3120    8.1580    1.0580 O.3       1 VD4500      0.0000 
     29 C2         61.1430    6.9020    1.9360 C.2       1 VD4500      0.0000 
     30 C28        61.7690    7.0410    3.0930 C.2       1 VD4500      0.0000 
     31 H          66.2003    0.3494   -8.0594 H         1 VD4500      0.0000 
     32 H          66.5104    0.8493   -6.3879 H         1 VD4500      0.0000 
     33 H          64.3754   -0.0624   -5.6303 H         1 VD4500      0.0000 
     34 H          64.0893   -0.8480   -7.1927 H         1 VD4500      0.0000 
     35 H          63.7718    1.3380   -8.2740 H         1 VD4500      0.0000 
     36 H          64.1705    2.1754   -6.7641 H         1 VD4500      0.0000 
     37 H          62.1532    4.4682   -7.2831 H         1 VD4500      0.0000 
     38 H          63.7425    4.0141   -6.6445 H         1 VD4500      0.0000 
     39 H          63.2721    6.4812   -6.4989 H         1 VD4500      0.0000 
     40 H          63.6210    5.7379   -4.9286 H         1 VD4500      0.0000 
     41 H          60.9086    6.5619   -6.0235 H         1 VD4500      0.0000 
     42 H          61.7341    7.1926   -4.5880 H         1 VD4500      0.0000 
     43 H          60.1261    0.7879   -5.0836 H         1 VD4500      0.0000 
     44 H          59.5083    1.8542   -6.3570 H         1 VD4500      0.0000 
     45 H          60.2189    2.5464   -3.5581 H         1 VD4500      0.0000 
     46 H          58.8308    3.0639   -4.5303 H         1 VD4500      0.0000 
     47 H          60.2471    4.1875   -6.0865 H         1 VD4500      0.0000 
     48 H          60.2436    4.5802   -2.4507 H         1 VD4500      0.0000 
     49 H          60.7378    7.5130   -2.8275 H         1 VD4500      0.0000 
     50 H          62.4847    5.3246    0.0798 H         1 VD4500      0.0000 
     51 H          61.0058    4.5977   -0.5718 H         1 VD4500      0.0000 
     52 H          59.6617    5.6323    1.1445 H         1 VD4500      0.0000 
     53 H          60.8823    8.8417   -0.8869 H         1 VD4500      0.0000 
     54 H          62.4278    8.3092   -0.2029 H         1 VD4500      0.0000 
     55 H          61.1266    8.9959    1.6408 H         1 VD4500      0.0000 
     56 H          68.7304   -0.5752   -6.7734 H         1 VD4500      0.0000 
     57 H          68.6179   -2.1361   -7.1436 H         1 VD4500      0.0000 
     58 H          68.2091   -1.0211   -8.2279 H         1 VD4500      0.0000 
     59 H          67.1730   -2.5288   -5.0885 H         1 VD4500      0.0000 
     60 H          67.1788   -0.9722   -4.6846 H         1 VD4500      0.0000 
     61 H          65.7833   -1.7407   -4.9046 H         1 VD4500      0.0000 
     62 H          61.5103   -0.1900   -8.1459 H         1 VD4500      0.0000 
     63 H          62.0106   -0.9274   -6.8072 H         1 VD4500      0.0000 
     64 H          60.6220   -0.1162   -6.8074 H         1 VD4500      0.0000 
     65 H          63.7824    2.5827   -4.4003 H         1 VD4500      0.0000 
     66 H          63.3123    3.9885   -3.7767 H         1 VD4500      0.0000 
     67 H          62.4862    2.6478   -3.4507 H         1 VD4500      0.0000 
     68 H          66.6841   -1.6382   -6.9970 H         1 VD4500      0.0000 
     69 H          62.0660    4.3750    2.0818 H         1 VD4500      0.0000 
     70 H          59.1043    9.0106    0.5785 H         1 VD4500      0.0000 
@<TRIPOS>BOND
     1    2    1 1    
     2   68    1 1    
     3    3    2 1    
     4    4    2 1    
     5    5    2 1    
     6   56    3 1    
     7   57    3 1    
     8   58    3 1    
     9   59    4 1    
    10   60    4 1    
    11   61    4 1    
    12    6    5 1    
    13   31    5 1    
    14   32    5 1    
    15    7    6 1    
    16   33    6 1    
    17   34    6 1    
    18    8    7 1    
    19   35    7 1    
    20   36    7 1    
    21    9    8 1    
    22   10    8 2    
    23   62    9 1    
    24   63    9 1    
    25   64    9 1    
    26   11   10 1    
    27   16   10 1    
    28   12   11 1    
    29   13   11 1    
    30   18   11 1    
    31   65   12 1    
    32   66   12 1    
    33   67   12 1    
    34   14   13 1    
    35   37   13 1    
    36   38   13 1    
    37   15   14 1    
    38   39   14 1    
    39   40   14 1    
    40   19   15 1    
    41   41   15 1    
    42   42   15 1    
    43   17   16 1    
    44   43   16 1    
    45   44   16 1    
    46   18   17 1    
    47   45   17 1    
    48   46   17 1    
    49   19   18 1    
    50   47   18 1    
    51   20   19 2    
    52   21   20 1    
    53   48   20 1    
    54   22   21 2    
    55   49   21 1    
    56   23   22 1    
    57   26   22 1    
    58   24   23 1    
    59   50   23 1    
    60   51   23 1    
    61   25   24 1    
    62   29   24 1    
    63   52   24 1    
    64   69   25 1    
    65   27   26 1    
    66   53   26 1    
    67   54   26 1    
    68   28   27 1    
    69   29   27 1    
    70   55   27 1    
    71   70   28 1    
    72   30   29 2    
@<TRIPOS>SUBSTRUCTURE
     1 VD4500      1 GROUP   
@<TRIPOS>SET

