#    Name: 3JUP_1_CAVITY_N1_ALL.mol2
#    Modification time : Tue Mar 11 04:51:25 2014

@<TRIPOS>MOLECULE
3JUP_1_CAVITY_N1_ALL.mol2
   73     0     6     0     0
SMALL
NO_CHARGES


@<TRIPOS>ATOM
      1 CA         42.6344    5.8818   95.4620 C.3       5 GLY6        0.0000 
      2 CA         43.8711    5.2585   94.8857 C.3       5 GLY6        0.0000 
      3 CZ         41.8982    4.5873   95.2823 C.ar      4 PHE5        0.0000 
      4 CZ         43.1349    3.9640   94.7060 C.ar      4 PHE5        0.0000 
      5 O          39.9253    3.9162   95.6788 O.2       2 ALA2        0.0000 
      6 CZ         41.1620    3.2928   95.1025 C.ar      4 PHE5        0.0000 
      7 CZ         42.3986    2.6695   94.5262 C.ar      4 PHE5        0.0000 
      8 N          43.6353    2.0462   93.9500 N.2       2 ALA2        0.0000 
      9 CZ         40.4257    1.9984   94.9228 C.ar      4 PHE5        0.0000 
     10 CZ         41.6624    1.3750   94.3465 C.ar      4 PHE5        0.0000 
     11 CZ         42.8991    0.7517   93.7702 C.ar      4 PHE5        0.0000 
     12 OG         44.1357    0.1284   93.1939 O.2       1 SER1        0.0000 
     13 OG         45.3724   -0.4950   92.6177 O.2       1 SER1        0.0000 
     14 OG         42.1629   -0.5428   93.5905 O.2       1 SER1        0.0000 
     15 OG         43.3995   -1.1661   93.0142 O.2       1 SER1        0.0000 
     16 OG         44.6362   -1.7894   92.4379 O.2       1 SER1        0.0000 
     17 CZ         41.4266   -1.8373   93.4108 C.ar      4 PHE5        0.0000 
     18 OG         42.6633   -2.4606   92.8345 O.2       1 SER1        0.0000 
     19 CA         41.9271   -3.7551   92.6548 C.3       5 GLY6        0.0000 
     20 CA         43.4484    5.6895   93.5125 C.3       5 GLY6        0.0000 
     21 CA         41.4755    5.0183   93.9091 C.3       5 GLY6        0.0000 
     22 CA         42.7122    4.3950   93.3328 C.3       5 GLY6        0.0000 
     23 N          43.9489    3.7717   92.7565 N.2       2 ALA2        0.0000 
     24 N          45.1855    3.1483   92.1802 N.2       2 ALA2        0.0000 
     25 O          39.5027    4.3472   94.3057 O.2       2 ALA2        0.0000 
     26 CA         40.7393    3.7239   93.7294 C.3       5 GLY6        0.0000 
     27 DU         41.9760    3.1005   93.1531 H         6 CUB7        0.0000 
     28 N          43.2127    2.4772   92.5768 N.2       2 ALA2        0.0000 
     29 N          44.4493    1.8539   92.0005 N.2       2 ALA2        0.0000 
     30 N          45.6860    1.2305   91.4242 N.2       2 ALA2        0.0000 
     31 O          38.7664    3.0527   94.1259 O.2       2 ALA2        0.0000 
     32 CZ         40.0031    2.4294   93.5496 C.ar      4 PHE5        0.0000 
     33 DU         41.2398    1.8061   92.9734 H         6 CUB7        0.0000 
     34 DU         42.4764    1.1827   92.3971 H         6 CUB7        0.0000 
     35 DU         43.7131    0.5594   91.8208 H         6 CUB7        0.0000 
     36 O          44.9498   -0.0639   91.2445 O.2       2 ALA2        0.0000 
     37 CZ         39.2669    1.1349   93.3699 C.ar      4 PHE5        0.0000 
     38 CZ         40.5035    0.5116   92.7936 C.ar      4 PHE5        0.0000 
     39 DU         41.7402   -0.1118   92.2173 H         6 CUB7        0.0000 
     40 DU         42.9769   -0.7351   91.6411 H         6 CUB7        0.0000 
     41 O          44.2135   -1.3584   91.0648 O.2       2 ALA2        0.0000 
     42 CZ         38.5306   -0.1596   93.1902 C.ar      4 PHE5        0.0000 
     43 CZ         39.7673   -0.7829   92.6139 C.ar      4 PHE5        0.0000 
     44 DU         41.0040   -1.4062   92.0376 H         6 CUB7        0.0000 
     45 CA         42.2406   -2.0296   91.4613 C.3       5 GLY6        0.0000 
     46 CZ         39.0311   -2.0774   92.4342 C.ar      4 PHE5        0.0000 
     47 CZ         40.2678   -2.7007   91.8579 C.ar      4 PHE5        0.0000 
     48 O          43.5262    4.2027   91.3833 O.2       2 ALA2        0.0000 
     49 CA         44.7629    3.5794   90.8070 C.3       5 GLY6        0.0000 
     50 CA         40.3167    4.1549   92.3562 C.3       5 GLY6        0.0000 
     51 CA         41.5533    3.5316   91.7799 C.3       5 GLY6        0.0000 
     52 NZ         42.7900    2.9082   91.2036 N.2       3 LYS4        0.0000 
     53 NZ         44.0267    2.2849   90.6273 N.2       3 LYS4        0.0000 
     54 O          45.2633    1.6616   90.0510 O.2       2 ALA2        0.0000 
     55 OG         46.5000    1.0382   89.4748 O.2       1 SER1        0.0000 
     56 O          38.3438    3.4838   92.7528 O.2       2 ALA2        0.0000 
     57 NZ         39.5805    2.8604   92.1765 N.2       3 LYS4        0.0000 
     58 NZ         40.8171    2.2371   91.6002 N.2       3 LYS4        0.0000 
     59 NZ         42.0538    1.6137   91.0239 N.2       3 LYS4        0.0000 
     60 NZ         43.2905    0.9904   90.4476 N.2       3 LYS4        0.0000 
     61 O          44.5271    0.3671   89.8713 O.2       2 ALA2        0.0000 
     62 O          37.6076    2.1893   92.5730 O.2       2 ALA2        0.0000 
     63 NZ         38.8442    1.5659   91.9968 N.2       3 LYS4        0.0000 
     64 NZ         40.0809    0.9426   91.4205 N.2       3 LYS4        0.0000 
     65 NZ         41.3176    0.3193   90.8442 N.2       3 LYS4        0.0000 
     66 NZ         42.5542   -0.3041   90.2679 N.2       3 LYS4        0.0000 
     67 CZ         38.1080    0.2715   91.8170 C.ar      4 PHE5        0.0000 
     68 NZ         39.3447   -0.3519   91.2407 N.2       3 LYS4        0.0000 
     69 NZ         40.5813   -0.9752   90.6645 N.2       3 LYS4        0.0000 
     70 CZ         41.8180   -1.5985   90.0882 C.ar      4 PHE5        0.0000 
     71 CZ         38.6084   -1.6464   91.0610 C.ar      4 PHE5        0.0000 
     72 NZ         43.6040    2.7159   89.2542 N.2       3 LYS4        0.0000 
     73 N          44.8407    2.0926   88.6779 N.2       2 ALA2        0.0000 
@<TRIPOS>BOND
@<TRIPOS>SUBSTRUCTURE
     1 SER1       12 GROUP   
     2 ALA2        5 GROUP   
     3 LYS4       52 GROUP   
     4 PHE5        3 GROUP   
     5 GLY6        1 GROUP   
     6 CUB7       27 GROUP   
@<TRIPOS>SET

