#    Name: 3jup_AKD_1_INTS_M
#    Modification time : Tue Mar 25 17:57:50 2014

@<TRIPOS>MOLECULE
3jup_AKD_1_INTS_M
   56     0    12     0     0
SMALL
NO_CHARGES


@<TRIPOS>ATOM
      1 NZ         39.1350    4.9900   95.6975 N.4       3 LYC4        0.0000 
      2 NZ         38.9860    3.7530   94.8320 N.4      11 LYL4        0.0000 
      3 NZ         38.5500    7.2000   96.0260 N.4       7 LYP4        0.0000 
      4 N          37.6175    3.2600   94.7220 N.am      1 SEC2        0.0000 
      5 N          38.9860    3.7530   94.8320 N.am      9 SEL2        0.0000 
      6 N          36.2490    2.7670   94.6120 N.am      5 SEP2        0.0000 
      7 N          39.1350    4.9900   95.6975 N.am      1 SEC2        0.0000 
      8 N          39.2840    6.2270   96.5630 N.am      5 SEP2        0.0000 
      9 N          38.3200    5.3205   94.9600 N.am      1 SEC2        0.0000 
     10 N          37.6540    6.8880   95.0880 N.am      5 SEP2        0.0000 
     11 N          37.5990    2.4750   93.9745 N.am      1 SEC2        0.0000 
     12 N          38.9490    2.1830   93.3370 N.am      9 SEL2        0.0000 
     13 CA         44.4250    7.5940   94.3210 C.3       4 GLC5        0.0000 
     14 CA         43.9450    5.9970   93.9400 C.3      12 GLL5        0.0000 
     15 CA         44.9050    9.1910   94.7020 C.3       8 GLP5        0.0000 
     16 CA         45.9610    5.4835   93.4905 C.3       4 GLC5        0.0000 
     17 CA         47.9770    4.9700   93.0410 C.3       8 GLP5        0.0000 
     18 CA         44.6085    5.8205   95.9785 C.3       4 GLC5        0.0000 
     19 CA         45.2720    5.6440   98.0170 C.3       8 GLP5        0.0000 
     20 CA         41.0080    5.3240   95.7950 C.3       4 GLC5        0.0000 
     21 CA         41.7270    4.2420   93.9670 C.3      12 GLL5        0.0000 
     22 CA         40.2890    6.4060   97.6230 C.3       8 GLP5        0.0000 
     23 CA         38.6620   -1.3495   93.9225 C.3       4 GLC5        0.0000 
     24 CA         39.4830   -1.3520   92.1670 C.3      12 GLL5        0.0000 
     25 CA         37.8410   -1.3470   95.6780 C.3       8 GLP5        0.0000 
     26 CA         39.0810   -2.8720   91.1850 C.3       4 GLC5        0.0000 
     27 CA         38.6790   -4.3920   90.2030 C.3       8 GLP5        0.0000 
     28 CA         38.5310   -2.2450   90.2800 C.3       4 GLC5        0.0000 
     29 CA         39.4770   -0.8550   90.7090 C.3      12 GLL5        0.0000 
     30 CA         37.5850   -3.6350   89.8510 C.3       8 GLP5        0.0000 
     31 CA         40.1795   -1.4530   89.0485 C.3       4 GLC5        0.0000 
     32 CA         40.8820   -2.0510   87.3880 C.3       8 GLP5        0.0000 
     33 CA         38.3725   -0.2725   89.2300 C.3       4 GLC5        0.0000 
     34 CA         37.2680    0.3100   87.7510 C.3       8 GLP5        0.0000 
     35 CA         40.6755   -1.6160   94.4945 C.3       4 GLC5        0.0000 
     36 CA         40.8550   -1.5510   92.6620 C.3      12 GLL5        0.0000 
     37 CA         40.4960   -1.6810   96.3270 C.3       8 GLP5        0.0000 
     38 CA         39.8285   -3.2960   92.0660 C.3       4 GLC5        0.0000 
     39 CA         38.8020   -5.0410   91.4700 C.3       8 GLP5        0.0000 
     40 CA         41.3335   -0.9685   89.2165 C.3       4 GLC5        0.0000 
     41 CA         41.7850    0.1140   91.0450 C.3      12 GLL5        0.0000 
     42 OD1        40.7385    0.8570   89.4470 O.co2     2 ASC3        0.0000 
     43 OD1        40.3970    0.2650   90.5780 O.co2    10 ASL3        0.0000 
     44 OD1        41.0800    1.4490   88.3160 O.co2     6 ASP3        0.0000 
     45 OD1        39.8700    1.4690   89.7005 O.co2     2 ASC3        0.0000 
     46 OD1        39.3430    2.6730   88.8230 O.co2     6 ASP3        0.0000 
     47 CA         40.8710   -0.3605   94.4055 C.3       4 GLC5        0.0000 
     48 CA         41.7940   -0.3620   92.5130 C.3      12 GLL5        0.0000 
     49 CA         39.9480   -0.3590   96.2980 C.3       8 GLP5        0.0000 
     50 CA         42.5475    5.9047   92.2075 C.3       4 GLC5        0.0000 
     51 CA         43.0970    4.3160   93.7140 C.3      12 GLL5        0.0000 
     52 CA         41.5740    6.6530   90.5880 C.3       8 GLP5        0.0000 
     53 CA         40.4240    5.0877   92.8345 C.3       4 GLC5        0.0000 
     54 CA         39.4570    6.5300   91.7870 C.3       8 GLP5        0.0000 
     55 CA         37.5240   -0.6603   91.8400 C.3       4 GLC5        0.0000 
     56 CA         35.5680   -0.2170   92.2420 C.3       8 GLP5        0.0000 
@<TRIPOS>BOND
@<TRIPOS>SUBSTRUCTURE
     1 SEC2        4 GROUP        1 X    SEC  0     ROOT SEC X 2
     2 ASC3       42 GROUP        1 X    ASC  0     **** ASC X 3
     3 LYC4        1 GROUP        1 X    LYC  0     **** LYC X 4
     4 GLC5       13 GROUP        1 X    GLC  0     **** GLC X 6
     5 SEP2        6 GROUP        1 Y    SEP  0     ROOT SEP Y 9
     6 ASP3       44 GROUP        1 Y    ASP  0     **** ASP Y 10
     7 LYP4        3 GROUP        1 Y    LYP  0     **** LYP Y 11
     8 GLP5       15 GROUP        1 Y    GLP  0     **** GLP Y 13
     9 SEL2        5 GROUP        1 Z    SEL  0     ROOT SEL Z 16
    10 ASL3       43 GROUP        1 Z    ASL  0     **** ASL Z 17
    11 LYL4        2 GROUP        1 Z    LYL  0     **** LYL Z 18
    12 GLL5       14 GROUP        1 Z    GLL  0     **** GLL Z 20
@<TRIPOS>SET

