#    Name: 3jup_AKD_1_ligand
#    Modification time : Tue Mar 25 17:57:50 2014

@<TRIPOS>MOLECULE
3jup_AKD_1_ligand
   30    31     1     0     0
SMALL
NO_CHARGES


@<TRIPOS>ATOM
      1 OAA        38.9860    3.7530   94.8320 O.co2     1 AKD500      0.0000 
      2 OAB        38.9490    2.1830   93.3370 O.co2     1 AKD500      0.0000 
      3 BRAC       43.9450    5.9970   93.9400 Br        1 AKD500      0.0000 
      4 CAD        43.8240    3.2200   93.3410 C.ar      1 AKD500      0.0000 
      5 CAE        43.1630    2.0130   93.2110 C.ar      1 AKD500      0.0000 
      6 CAF        41.7270    4.2420   93.9670 C.ar      1 AKD500      0.0000 
      7 CAG        39.4830   -1.3520   92.1670 C.3       1 AKD500      0.0000 
      8 CAH        39.4770   -0.8550   90.7090 C.3       1 AKD500      0.0000 
      9 CAI        40.8550   -1.5510   92.6620 C.3       1 AKD500      0.0000 
     10 CAJ        41.7850    0.1140   91.0450 C.3       1 AKD500      0.0000 
     11 NAK        40.3970    0.2650   90.5780 N.4       1 AKD500      0.0000 
     12 NAL        41.2230    0.7380   93.2920 N.pl3     1 AKD500      0.0000 
     13 CAM        39.5230    2.9870   94.0350 C.2       1 AKD500      0.0000 
     14 CAN        43.0970    4.3160   93.7140 C.ar      1 AKD500      0.0000 
     15 CAO        41.7930    1.9460   93.4070 C.ar      1 AKD500      0.0000 
     16 CAP        41.0550    3.0490   93.7970 C.ar      1 AKD500      0.0000 
     17 CAQ        41.7940   -0.3620   92.5130 C.3       1 AKD500      0.0000 
     18 H          44.8268    3.2838   93.1619 H         1 AKD500      0.0000 
     19 H          43.6891    1.1600   92.9677 H         1 AKD500      0.0000 
     20 H          41.2224    5.0834   94.2811 H         1 AKD500      0.0000 
     21 H          38.9159   -2.2896   92.2077 H         1 AKD500      0.0000 
     22 H          38.9530   -0.6127   92.7792 H         1 AKD500      0.0000 
     23 H          38.4576   -0.5628   90.4583 H         1 AKD500      0.0000 
     24 H          39.7709   -1.6870   90.0696 H         1 AKD500      0.0000 
     25 H          41.3224   -2.4245   92.1446 H         1 AKD500      0.0000 
     26 H          40.8312   -1.8364   93.7424 H         1 AKD500      0.0000 
     27 H          42.3186    1.0623   90.9935 H         1 AKD500      0.0000 
     28 H          42.3191   -0.6233   90.4470 H         1 AKD500      0.0000 
     29 H          40.3112    0.5179   93.7709 H         1 AKD500      0.0000 
     30 H          42.7542   -0.5988   92.8085 H         1 AKD500      0.0000 
@<TRIPOS>BOND
     1   13    1 ar   
     2   13    2 ar   
     3   14    3 1    
     4    5    4 ar   
     5   14    4 ar   
     6   18    4 1    
     7   15    5 ar   
     8   19    5 1    
     9   14    6 ar   
    10   16    6 ar   
    11   20    6 1    
    12    8    7 1    
    13    9    7 1    
    14   21    7 1    
    15   22    7 1    
    16   11    8 1    
    17   23    8 1    
    18   24    8 1    
    19   17    9 1    
    20   25    9 1    
    21   26    9 1    
    22   11   10 1    
    23   17   10 1    
    24   27   10 1    
    25   28   10 1    
    26   15   12 1    
    27   17   12 1    
    28   29   12 1    
    29   16   13 1    
    30   16   15 ar   
    31   30   17 1    
@<TRIPOS>SUBSTRUCTURE
     1 AKD500      1 GROUP   
@<TRIPOS>SET

