#    Name: 3KS9_1_CAVITY_N1_6.mol2
#    Modification time : Tue Mar 11 09:30:06 2014

@<TRIPOS>MOLECULE
3KS9_1_CAVITY_N1_6.mol2
  119     0     7     0     0
SMALL
NO_CHARGES


@<TRIPOS>ATOM
      1 N         -41.2646   12.7892   41.5334 N.2       2 ALA2        0.0000 
      2 DU        -41.7026   12.5588   39.4706 H         7 CUB7        0.0000 
      3 N         -42.3481   12.1110   40.7485 N.2       2 ALA2        0.0000 
      4 DU        -42.7860   11.8806   38.6857 H         7 CUB7        0.0000 
      5 N         -43.4315   11.4328   39.9635 N.2       2 ALA2        0.0000 
      6 DU        -43.8695   11.2024   37.9008 H         7 CUB7        0.0000 
      7 NZ        -44.5150   10.7546   39.1786 N.2       4 LYS4        0.0000 
      8 CZ        -43.0165   11.8674   33.2823 C.ar      5 PHE5        0.0000 
      9 DU        -43.6620   11.4197   34.5601 H         7 CUB7        0.0000 
     10 DU        -44.9530   10.5242   37.1158 H         7 CUB7        0.0000 
     11 NZ        -45.5985   10.0764   38.3937 N.2       4 LYS4        0.0000 
     12 CZ        -44.1000   11.1892   32.4974 C.ar      5 PHE5        0.0000 
     13 DU        -44.7455   10.7415   33.7752 H         7 CUB7        0.0000 
     14 DU        -45.3910   10.2937   35.0530 H         7 CUB7        0.0000 
     15 OG        -46.0365    9.8460   36.3309 O.2       1 SER1        0.0000 
     16 OG        -46.6819    9.3982   37.6087 O.2       1 SER1        0.0000 
     17 CA        -45.1835   10.5110   31.7124 C.3       6 GLY6        0.0000 
     18 O         -45.8290   10.0633   32.9903 O.2       2 ALA2        0.0000 
     19 OG        -46.4744    9.6155   34.2681 O.2       1 SER1        0.0000 
     20 OG        -47.5579    8.9373   33.4832 O.2       1 SER1        0.0000 
     21 DU        -40.8905   11.2980   39.4391 H         7 CUB7        0.0000 
     22 N         -41.5360   10.8502   40.7169 N.2       2 ALA2        0.0000 
     23 DU        -41.9740   10.6198   38.6541 H         7 CUB7        0.0000 
     24 NZ        -42.6195   10.1720   39.9320 N.2       4 LYS4        0.0000 
     25 OG        -41.1210   11.2849   34.0357 O.2       1 SER1        0.0000 
     26 OG        -41.7665   10.8371   35.3135 O.2       1 SER1        0.0000 
     27 DU        -42.4120   10.3893   36.5914 H         7 CUB7        0.0000 
     28 DU        -43.0575    9.9416   37.8692 H         7 CUB7        0.0000 
     29 NZ        -43.7029    9.4938   39.1470 N.2       4 LYS4        0.0000 
     30 CZ        -42.2045   10.6067   33.2507 C.ar      5 PHE5        0.0000 
     31 DU        -42.8500   10.1589   34.5286 H         7 CUB7        0.0000 
     32 DU        -43.4954    9.7111   35.8064 H         7 CUB7        0.0000 
     33 DU        -44.1409    9.2634   37.0842 H         7 CUB7        0.0000 
     34 NZ        -44.7864    8.8156   38.3621 N.2       4 LYS4        0.0000 
     35 CZ        -43.2879    9.9285   32.4658 C.ar      5 PHE5        0.0000 
     36 N         -43.9334    9.4807   33.7436 N.2       2 ALA2        0.0000 
     37 N         -44.5789    9.0329   35.0215 N.2       2 ALA2        0.0000 
     38 OG        -45.2244    8.5852   36.2993 O.2       1 SER1        0.0000 
     39 OG        -45.8699    8.1374   37.5771 O.2       1 SER1        0.0000 
     40 NZ        -46.5154    7.6897   38.8550 N.2       4 LYS4        0.0000 
     41 N         -45.0169    8.8025   32.9587 N.2       2 ALA2        0.0000 
     42 CA        -43.3267   15.0803   39.5338 C.3       6 GLY6        0.0000 
     43 DU        -44.4102   14.4021   38.7489 H         7 CUB7        0.0000 
     44 CA        -45.0557   13.9544   40.0267 C.3       6 GLY6        0.0000 
     45 DU        -45.4936   13.7239   37.9639 H         7 CUB7        0.0000 
     46 CZ        -46.1391   13.2762   39.2418 C.ar      5 PHE5        0.0000 
     47 DU        -45.9316   13.4935   35.9011 H         7 CUB7        0.0000 
     48 CZ        -46.5771   13.0457   37.1790 C.ar      5 PHE5        0.0000 
     49 DU        -47.0151   12.8153   35.1162 H         7 CUB7        0.0000 
     50 CZ        -47.6606   12.3675   36.3940 C.ar      5 PHE5        0.0000 
     51 CA        -46.8076   13.0326   31.7756 C.3       6 GLY6        0.0000 
     52 DU        -47.4531   12.5848   33.0534 H         7 CUB7        0.0000 
     53 DU        -48.0986   12.1371   34.3312 H         7 CUB7        0.0000 
     54 CZ        -48.7441   11.6893   35.6091 C.ar      5 PHE5        0.0000 
     55 CA        -48.5366   11.9066   32.2685 C.3       6 GLY6        0.0000 
     56 CA        -49.1820   11.4589   33.5463 C.3       6 GLY6        0.0000 
     57 NZ        -49.8275   11.0111   34.8241 N.2       4 LYS4        0.0000 
     58 CA        -50.2655   10.7807   32.7614 C.3       6 GLY6        0.0000 
     59 CA        -50.9110   10.3329   34.0392 C.3       6 GLY6        0.0000 
     60 CA        -49.7227   14.6586   34.3944 C.3       6 GLY6        0.0000 
     61 CA        -50.1607   14.4282   32.3316 C.3       6 GLY6        0.0000 
     62 O         -41.4312   14.4978   40.2872 O.2       2 ALA2        0.0000 
     63 N         -42.0767   14.0500   41.5650 N.2       2 ALA2        0.0000 
     64 N         -43.1601   13.3718   40.7801 N.2       2 ALA2        0.0000 
     65 DU        -43.5981   13.1413   38.7173 H         7 CUB7        0.0000 
     66 CA        -44.2436   12.6936   39.9951 C.3       6 GLY6        0.0000 
     67 DU        -44.6816   12.4631   37.9323 H         7 CUB7        0.0000 
     68 NZ        -45.3271   12.0154   39.2102 N.2       4 LYS4        0.0000 
     69 DU        -45.7651   11.7849   37.1474 H         7 CUB7        0.0000 
     70 CZ        -46.4105   11.3372   38.4252 C.ar      5 PHE5        0.0000 
     71 CA        -44.9121   12.4500   32.5289 C.3       6 GLY6        0.0000 
     72 DU        -45.5576   12.0023   33.8068 H         7 CUB7        0.0000 
     73 DU        -46.2030   11.5545   35.0846 H         7 CUB7        0.0000 
     74 OG        -46.8485   11.1067   36.3625 O.2       1 SER1        0.0000 
     75 CZ        -47.4940   10.6590   37.6403 C.ar      5 PHE5        0.0000 
     76 CA        -45.9955   11.7718   31.7440 C.3       6 GLY6        0.0000 
     77 O         -46.6410   11.3241   33.0218 O.2       2 ALA2        0.0000 
     78 OG        -47.2865   10.8763   34.2997 O.2       1 SER1        0.0000 
     79 OG        -47.9320   10.4285   35.5775 O.2       1 SER1        0.0000 
     80 O         -47.7245   10.6459   32.2369 O.2       2 ALA2        0.0000 
     81 OG        -48.3700   10.1981   33.5147 O.2       1 SER1        0.0000 
     82 OG        -49.0155    9.7503   34.7926 O.2       1 SER1        0.0000 
     83 O         -44.1388   16.3411   39.5654 O.2       2 ALA2        0.0000 
     84 CA        -45.2222   15.6629   38.7804 C.3       6 GLY6        0.0000 
     85 CA        -45.8677   15.2151   40.0583 C.3       6 GLY6        0.0000 
     86 CA        -46.3057   14.9847   37.9955 C.3       6 GLY6        0.0000 
     87 CZ        -46.9512   14.5369   39.2733 C.ar      5 PHE5        0.0000 
     88 CA        -47.8272   14.0761   35.1478 C.3       6 GLY6        0.0000 
     89 DU        -48.2652   13.8456   33.0850 H         7 CUB7        0.0000 
     90 CA        -48.9106   13.3979   34.3628 C.3       6 GLY6        0.0000 
     91 O         -48.7031   13.6152   31.0222 O.2       2 ALA2        0.0000 
     92 DU        -49.3486   13.1674   32.3000 H         7 CUB7        0.0000 
     93 DU        -49.9941   12.7197   33.5779 H         7 CUB7        0.0000 
     94 CA        -50.6396   12.2719   34.8557 C.3       6 GLY6        0.0000 
     95 N         -51.0776   12.0414   32.7929 N.2       2 ALA2        0.0000 
     96 OD1       -40.0785   10.0372   39.4075 O.3       3 ASP3        0.0000 
     97 OD1       -40.5164    9.8068   37.3447 O.3       3 ASP3        0.0000 
     98 OD1       -41.1619    9.3590   38.6226 O.3       3 ASP3        0.0000 
     99 OD1       -41.8074    8.9113   39.9004 O.3       3 ASP3        0.0000 
    100 NZ        -42.4529    8.4635   41.1782 N.2       4 LYS4        0.0000 
    101 OG        -40.9544    9.5763   35.2819 O.2       1 SER1        0.0000 
    102 OD1       -41.5999    9.1286   36.5598 O.3       3 ASP3        0.0000 
    103 OD1       -42.2454    8.6808   37.8376 O.3       3 ASP3        0.0000 
    104 OD1       -42.8909    8.2331   39.1155 O.3       3 ASP3        0.0000 
    105 CZ        -41.3924    9.3459   33.2192 C.ar      5 PHE5        0.0000 
    106 CA        -42.0379    8.8981   34.4970 C.3       6 GLY6        0.0000 
    107 CA        -42.6834    8.4504   35.7748 C.3       6 GLY6        0.0000 
    108 CA        -43.3289    8.0026   37.0527 C.3       6 GLY6        0.0000 
    109 NZ        -43.9743    7.5549   38.3305 N.2       4 LYS4        0.0000 
    110 N         -42.4759    8.6677   32.4342 N.2       2 ALA2        0.0000 
    111 N         -43.1214    8.2199   33.7121 N.2       2 ALA2        0.0000 
    112 N         -44.4123    7.3244   36.2677 N.2       2 ALA2        0.0000 
    113 CA        -45.0578    6.8767   37.5456 C.3       6 GLY6        0.0000 
    114 CA        -45.7033    6.4289   38.8234 C.3       6 GLY6        0.0000 
    115 OD1       -38.6209    9.2242   38.0981 O.3       3 ASP3        0.0000 
    116 OD1       -39.2664    8.7764   39.3759 O.3       3 ASP3        0.0000 
    117 OD1       -40.1424    8.3156   35.2504 O.3       3 ASP3        0.0000 
    118 CZ        -40.5804    8.0851   33.1876 C.ar      5 PHE5        0.0000 
    119 CA        -41.2258    7.6373   34.4654 C.3       6 GLY6        0.0000 
@<TRIPOS>BOND
@<TRIPOS>SUBSTRUCTURE
     1 SER1       15 GROUP   
     2 ALA2        1 GROUP   
     3 ASP3       96 GROUP   
     4 LYS4        7 GROUP   
     5 PHE5        8 GROUP   
     6 GLY6       17 GROUP   
     7 CUB7        2 GROUP   
@<TRIPOS>SET

