#    Name: 3ks9_Z99_1_INTS_M
#    Modification time : Mon Mar 24 20:24:59 2014

@<TRIPOS>MOLECULE
3ks9_Z99_1_INTS_M
   55     0     9     0     0
SMALL
NO_CHARGES


@<TRIPOS>ATOM
      1 O         -45.5265    7.4440   34.6325 O.2       1 ALC1        0.0000 
      2 O         -45.9450    8.6060   35.4310 O.2       7 ALL1        0.0000 
      3 O         -45.1080    6.2820   33.8340 O.2       4 ALP1        0.0000 
      4 O         -47.1450    8.1820   35.8780 O.2       1 ALC1        0.0000 
      5 O         -48.3450    7.7580   36.3250 O.2       4 ALP1        0.0000 
      6 N         -46.9360   10.0950   31.1645 N.am      2 SEC2        0.0000 
      7 N         -46.4300   10.7060   32.5060 N.am      8 SEL2        0.0000 
      8 N         -47.4420    9.4840   29.8230 N.am      5 SEP2        0.0000 
      9 N         -39.7310   10.4805   34.3215 N.am      2 SEC2        0.0000 
     10 N         -41.2240   10.3340   34.1470 N.am      8 SEL2        0.0000 
     11 N         -38.2380   10.6270   34.4960 N.am      5 SEP2        0.0000 
     12 N         -47.3795    9.1235   31.4825 N.am      2 SEC2        0.0000 
     13 N         -47.3170    8.7630   33.1420 N.am      8 SEL2        0.0000 
     14 N         -48.3775    8.5470   32.4755 N.am      2 SEC2        0.0000 
     15 N         -49.4380    8.3310   31.8090 N.am      5 SEP2        0.0000 
     16 N         -47.8945    7.4865   33.5375 N.am      2 SEC2        0.0000 
     17 N         -48.4720    6.2100   33.9330 N.am      5 SEP2        0.0000 
     18 CA        -52.1445   13.5415   33.5005 C.3       3 GLC5        0.0000 
     19 CA        -50.2790   12.7110   33.6740 C.3       9 GLL5        0.0000 
     20 CA        -54.0100   14.3720   33.3270 C.3       6 GLP5        0.0000 
     21 CA        -51.3310    9.9910   33.3155 C.3       3 GLC5        0.0000 
     22 CA        -50.2620   11.3500   34.0510 C.3       9 GLL5        0.0000 
     23 CA        -52.4000    8.6320   32.5800 C.3       6 GLP5        0.0000 
     24 CA        -50.7395    9.3775   34.3790 C.3       3 GLC5        0.0000 
     25 CA        -49.2210   10.8700   34.8580 C.3       9 GLL5        0.0000 
     26 CA        -52.2580    7.8850   33.9000 C.3       6 GLP5        0.0000 
     27 CA        -42.3050    9.8085   31.6185 C.3       3 GLC5        0.0000 
     28 CA        -43.5060    9.0330   33.0320 C.3       9 GLL5        0.0000 
     29 CA        -41.1040   10.5840   30.2050 C.3       6 GLP5        0.0000 
     30 CA        -42.9770    7.1375   33.0200 C.3       3 GLC5        0.0000 
     31 CA        -42.4480    5.2420   33.0080 C.3       6 GLP5        0.0000 
     32 CA        -48.3275   11.8220   37.4555 C.3       3 GLC5        0.0000 
     33 CA        -47.0510   11.2220   36.1600 C.3       9 GLL5        0.0000 
     34 CA        -49.6040   12.4220   38.7510 C.3       6 GLP5        0.0000 
     35 CA        -42.5510   11.2005   31.7355 C.3       3 GLC5        0.0000 
     36 CA        -43.4590   10.5560   33.2490 C.3       9 GLL5        0.0000 
     37 CA        -41.6430   11.8450   30.2220 C.3       6 GLP5        0.0000 
     38 CA        -50.4442   13.1597   35.6352 C.3       3 GLC5        0.0000 
     39 CA        -50.6180   14.2890   37.4080 C.3       6 GLP5        0.0000 
     40 CA        -46.9200   16.3185   38.7835 C.3       3 GLC5        0.0000 
     41 CA        -46.3750   14.7040   37.4970 C.3       9 GLL5        0.0000 
     42 CA        -47.7040   18.0750   39.4250 C.3       6 GLP5        0.0000 
     43 CA        -45.4940   14.0325   40.9188 C.3       3 GLC5        0.0000 
     44 CA        -45.8970   14.4200   38.7870 C.3       9 GLL5        0.0000 
     45 CA        -45.1370   14.3060   42.8200 C.3       6 GLP5        0.0000 
     46 CA        -49.7403   10.1985   32.6208 C.3       3 GLC5        0.0000 
     47 CA        -49.7390    9.2870   30.7870 C.3       6 GLP5        0.0000 
     48 CA        -49.6822   13.8152   35.9582 C.3       3 GLC5        0.0000 
     49 CA        -49.2660   13.5830   34.1050 C.3       9 GLL5        0.0000 
     50 CA        -49.6665   12.7955   36.2387 C.3       3 GLC5        0.0000 
     51 CA        -48.2090   11.7340   35.2810 C.3       9 GLL5        0.0000 
     52 CA        -44.2642    9.6922   31.2482 C.3       3 GLC5        0.0000 
     53 CA        -45.0460    9.5900   29.3560 C.3       6 GLP5        0.0000 
     54 CA        -48.6155   13.7756   37.2477 C.3       3 GLC5        0.0000 
     55 CA        -46.6580   12.3420   37.1070 C.3       9 GLL5        0.0000 
@<TRIPOS>BOND
@<TRIPOS>SUBSTRUCTURE
     1 ALC1        1 GROUP        1 X    ALC  0     ROOT ALC X 1
     2 SEC2        6 GROUP        1 X    SEC  0     **** SEC X 2
     3 GLC5       18 GROUP        1 X    GLC  0     **** GLC X 6
     4 ALP1        3 GROUP        1 Y    ALP  0     ROOT ALP Y 8
     5 SEP2        8 GROUP        1 Y    SEP  0     **** SEP Y 9
     6 GLP5       20 GROUP        1 Y    GLP  0     **** GLP Y 13
     7 ALL1        2 GROUP        1 Z    ALL  0     ROOT ALL Z 15
     8 SEL2        7 GROUP        1 Z    SEL  0     **** SEL Z 16
     9 GLL5       19 GROUP        1 Z    GLL  0     **** GLL Z 20
@<TRIPOS>SET

