#    Name: 3ks9_Z99_1_ligand
#    Modification time : Mon Mar 24 20:24:59 2014

@<TRIPOS>MOLECULE
3ks9_Z99_1_ligand
   44    47     1     0     0
SMALL
NO_CHARGES


@<TRIPOS>ATOM
      1 NAA       -45.9450    8.6060   35.4310 N.4       1 Z991        0.0000 
      2 OAB       -41.9410   12.3600   33.5680 O.co2     1 Z991        0.0000 
      3 OAC       -46.4300   10.7060   32.5060 O.co2     1 Z991        0.0000 
      4 OAD       -41.2240   10.3340   34.1470 O.co2     1 Z991        0.0000 
      5 OAE       -47.3170    8.7630   33.1420 O.co2     1 Z991        0.0000 
      6 CAF       -50.2790   12.7110   33.6740 C.ar      1 Z991        0.0000 
      7 CAG       -45.8970   14.4200   38.7870 C.ar      1 Z991        0.0000 
      8 CAH       -50.2620   11.3500   34.0510 C.ar      1 Z991        0.0000 
      9 CAI       -45.8050   13.0980   39.2480 C.ar      1 Z991        0.0000 
     10 CAJ       -49.2660   13.5830   34.1050 C.ar      1 Z991        0.0000 
     11 CAK       -46.3750   14.7040   37.4970 C.ar      1 Z991        0.0000 
     12 CAL       -49.2210   10.8700   34.8580 C.ar      1 Z991        0.0000 
     13 CAM       -46.1640   12.0470   38.3930 C.ar      1 Z991        0.0000 
     14 CAN       -45.8060   11.0650   35.2890 C.3       1 Z991        0.0000 
     15 CAO       -43.5060    9.0330   33.0320 C.3       1 Z991        0.0000 
     16 OAP       -47.2340   13.9520   35.3500 O.3       1 Z991        0.0000 
     17 CAQ       -42.0840   11.1240   33.6770 C.2       1 Z991        0.0000 
     18 CAR       -46.4840    9.7010   33.2630 C.2       1 Z991        0.0000 
     19 CAS       -48.2270   13.1000   34.9120 C.ar      1 Z991        0.0000 
     20 CAT       -46.7610   13.6610   36.6390 C.ar      1 Z991        0.0000 
     21 CAU       -48.2090   11.7340   35.2810 C.ar      1 Z991        0.0000 
     22 CAV       -46.6580   12.3420   37.1070 C.ar      1 Z991        0.0000 
     23 CAW       -47.0510   11.2220   36.1600 C.3       1 Z991        0.0000 
     24 CAX       -43.4590   10.5560   33.2490 C.3       1 Z991        0.0000 
     25 CAY       -45.6010    9.7230   34.5340 C.3       1 Z991        0.0000 
     26 CAZ       -44.0730    9.6520   34.3000 C.3       1 Z991        0.0000 
     27 H         -51.0388   13.0620   33.0806 H         1 Z991        0.0000 
     28 H         -45.6098   15.1946   39.4033 H         1 Z991        0.0000 
     29 H         -51.0033   10.7252   33.7363 H         1 Z991        0.0000 
     30 H         -45.4804   12.9047   40.1948 H         1 Z991        0.0000 
     31 H         -49.2876   14.5681   33.8299 H         1 Z991        0.0000 
     32 H         -46.4424   15.6771   37.1803 H         1 Z991        0.0000 
     33 H         -49.2050    9.8829   35.1366 H         1 Z991        0.0000 
     34 H         -46.0699   11.0789   38.6952 H         1 Z991        0.0000 
     35 H         -44.8995   11.2435   35.9209 H         1 Z991        0.0000 
     36 H         -45.7900   11.8890   34.5316 H         1 Z991        0.0000 
     37 H         -42.6472    8.6979   33.2345 H         1 Z991        0.0000 
     38 H         -44.2277    8.8586   32.4493 H         1 Z991        0.0000 
     39 H         -47.2764   10.3702   36.6543 H         1 Z991        0.0000 
     40 H         -44.1221   10.9525   32.7632 H         1 Z991        0.0000 
     41 H         -43.3988    9.5399   34.9923 H         1 Z991        0.0000 
     42 H         -45.8259    7.7198   34.9832 H         1 Z991        0.0000 
     43 H         -45.3734    8.5990   36.2515 H         1 Z991        0.0000 
     44 H         -46.8959    8.6545   35.7367 H         1 Z991        0.0000 
@<TRIPOS>BOND
     1   25    1 1    
     2   42    1 1    
     3   43    1 1    
     4   44    1 1    
     5   17    2 ar   
     6   18    3 ar   
     7   17    4 ar   
     8   18    5 ar   
     9    8    6 ar   
    10   10    6 ar   
    11   27    6 1    
    12    9    7 ar   
    13   11    7 ar   
    14   28    7 1    
    15   12    8 ar   
    16   29    8 1    
    17   13    9 ar   
    18   30    9 1    
    19   19   10 ar   
    20   31   10 1    
    21   20   11 ar   
    22   32   11 1    
    23   21   12 ar   
    24   33   12 1    
    25   22   13 ar   
    26   34   13 1    
    27   23   14 1    
    28   25   14 1    
    29   35   14 1    
    30   36   14 1    
    31   24   15 1    
    32   26   15 1    
    33   37   15 1    
    34   38   15 1    
    35   19   16 1    
    36   20   16 1    
    37   24   17 1    
    38   25   18 1    
    39   21   19 ar   
    40   22   20 ar   
    41   23   21 1    
    42   23   22 1    
    43   39   23 1    
    44   26   24 1    
    45   40   24 1    
    46   26   25 1    
    47   41   26 1    
@<TRIPOS>SUBSTRUCTURE
     1 Z991        1 GROUP   
@<TRIPOS>SET

