#    Name: 4h8n_NDP_2_INTS_M
#    Modification time : Tue Mar 25 00:42:29 2014

@<TRIPOS>MOLECULE
4h8n_NDP_2_INTS_M
  119     0    12     0     0
SMALL
NO_CHARGES


@<TRIPOS>ATOM
      1 N          14.9995   41.2140   32.7320 N.am      2 SEC2        0.0000 
      2 N          15.6290   41.3940   33.9800 N.am     10 SEL2        0.0000 
      3 N          14.3700   41.0340   31.4840 N.am      6 SEP2        0.0000 
      4 N          13.8740   40.4840   37.5070 N.am      2 SEC2        0.0000 
      5 N          14.1630   40.8840   35.9580 N.am     10 SEL2        0.0000 
      6 N          13.5850   40.0840   39.0560 N.am      6 SEP2        0.0000 
      7 CA         15.6400   42.5385   38.8715 C.3       4 GLC5        0.0000 
      8 CA         15.5790   43.4370   37.2640 C.3      12 GLL5        0.0000 
      9 CA         15.7010   41.6400   40.4790 C.3       8 GLP5        0.0000 
     10 CA         15.4410   45.9300   35.4255 C.3       4 GLC5        0.0000 
     11 CA         15.2980   44.9310   37.1200 C.3      12 GLL5        0.0000 
     12 CA         15.5840   46.9290   33.7310 C.3       8 GLP5        0.0000 
     13 CA         16.0605   46.4120   39.9140 C.3       4 GLC5        0.0000 
     14 CA         14.9660   45.5290   38.4810 C.3      12 GLL5        0.0000 
     15 CA         17.1550   47.2950   41.3470 C.3       8 GLP5        0.0000 
     16 CA         15.3335   43.5845   39.4800 C.3       4 GLC5        0.0000 
     17 CA         12.6330   44.8275   40.0115 C.3       4 GLC5        0.0000 
     18 CA         13.5090   45.9810   38.4480 C.3      12 GLL5        0.0000 
     19 CA         11.7570   43.6740   41.5750 C.3       8 GLP5        0.0000 
     20 CA         14.4560   46.5130   35.3395 C.3       4 GLC5        0.0000 
     21 CA         13.3280   46.0970   36.9480 C.3      12 GLL5        0.0000 
     22 CA          9.1060   46.7930   36.9635 C.3       4 GLC5        0.0000 
     23 CA         10.2730   46.5600   35.2540 C.3      12 GLL5        0.0000 
     24 CA          7.9390   47.0260   38.6730 C.3       8 GLP5        0.0000 
     25 CA          9.6520   46.4555   32.4920 C.3       4 GLC5        0.0000 
     26 CA          9.5680   47.2880   34.3440 C.3      12 GLL5        0.0000 
     27 CA          9.7360   45.6230   30.6400 C.3       8 GLP5        0.0000 
     28 CA          8.5675   45.4110   33.6155 C.3       4 GLC5        0.0000 
     29 CA          7.5670   43.5340   32.8870 C.3       8 GLP5        0.0000 
     30 CA         12.7835   50.0075   34.5850 C.3       4 GLC5        0.0000 
     31 CA         11.4630   48.7080   33.9570 C.3      12 GLL5        0.0000 
     32 CA         14.1040   51.3070   35.2130 C.3       8 GLP5        0.0000 
     33 CA         11.7000   47.8305   32.2680 C.3       4 GLC5        0.0000 
     34 CA         11.9370   46.9530   30.5790 C.3       8 GLP5        0.0000 
     35 CA         13.5490   48.3050   33.2615 C.3       4 GLC5        0.0000 
     36 CA         15.6350   47.9020   32.5660 C.3       8 GLP5        0.0000 
     37 CA         13.5550   46.9200   34.6340 C.3       4 GLC5        0.0000 
     38 CA         11.5260   46.9110   35.5370 C.3      12 GLL5        0.0000 
     39 N          18.9575   41.6565   38.9310 N.am      2 SEC2        0.0000 
     40 N          17.9860   41.7330   37.6730 N.am     10 SEL2        0.0000 
     41 N          19.9290   41.5800   40.1890 N.am      6 SEP2        0.0000 
     42 NZ         20.4585   42.4030   35.6025 N.4       3 LYC4        0.0000 
     43 NZ         19.2970   41.2160   35.5210 N.4      11 LYL4        0.0000 
     44 NZ         21.7470   44.1550   34.4860 N.4       7 LYP4        0.0000 
     45 N          20.4585   42.4030   35.6025 N.am      2 SEC2        0.0000 
     46 N          19.2970   41.2160   35.5210 N.am     10 SEL2        0.0000 
     47 N          21.6200   43.5900   35.6840 N.am      6 SEP2        0.0000 
     48 N          19.7995   40.7950   34.3765 N.am      2 SEC2        0.0000 
     49 N          20.3020   40.3740   33.2320 N.am      6 SEP2        0.0000 
     50 CA         15.6880   38.5195   37.7105 C.3       4 GLC5        0.0000 
     51 CA         17.7290   38.8170   37.9870 C.3      12 GLL5        0.0000 
     52 CA         13.6470   38.2220   37.4340 C.3       8 GLP5        0.0000 
     53 CA         16.7150   40.2285   39.2330 C.3       4 GLC5        0.0000 
     54 CA         17.5700   36.0915   38.6665 C.3       4 GLC5        0.0000 
     55 CA         18.4520   37.7530   38.8660 C.3      12 GLL5        0.0000 
     56 CA         16.6880   34.4300   38.4670 C.3       8 GLP5        0.0000 
     57 CA         20.7265   39.8320   39.2505 C.3       4 GLC5        0.0000 
     58 CA         19.5320   38.3080   39.7870 C.3      12 GLL5        0.0000 
     59 CA         21.9210   41.3560   38.7140 C.3       8 GLP5        0.0000 
     60 N          19.6350   38.7205   42.2975 N.am      2 SEC2        0.0000 
     61 N          18.9560   38.9140   40.9680 N.am     10 SEL2        0.0000 
     62 N          20.3140   38.5270   43.6270 N.am      6 SEP2        0.0000 
     63 O          19.4425   40.2470   40.5785 O.2       1 ALC1        0.0000 
     64 O          18.9560   38.9140   40.9680 O.2       9 ALL1        0.0000 
     65 O          19.9290   41.5800   40.1890 O.2       5 ALP1        0.0000 
     66 CA         21.9325   36.4910   41.0140 C.3       4 GLC5        0.0000 
     67 CA         20.3020   37.0230   40.0680 C.3      12 GLL5        0.0000 
     68 CA         23.5630   35.9590   41.9600 C.3       8 GLP5        0.0000 
     69 O          19.6380   34.9165   40.9555 O.2       1 ALC1        0.0000 
     70 O          19.5140   36.2580   41.0250 O.2       9 ALL1        0.0000 
     71 O          19.7620   33.5750   40.8860 O.2       5 ALP1        0.0000 
     72 CA         19.9660   36.1545   36.7580 C.3       4 GLC5        0.0000 
     73 CA         20.1930   36.2760   38.7280 C.3      12 GLL5        0.0000 
     74 CA         19.7390   36.0330   34.7880 C.3       8 GLP5        0.0000 
     75 CA         18.4405   35.3530   38.5975 C.3       4 GLC5        0.0000 
     76 N          26.3550   34.0500   35.4590 N.am      2 SEC2        0.0000 
     77 N          25.5770   35.0300   36.3320 N.am     10 SEL2        0.0000 
     78 N          27.1330   33.0700   34.5860 N.am      6 SEP2        0.0000 
     79 NZ         13.3105   49.5825   39.8875 N.4       3 LYC4        0.0000 
     80 NZ         12.2700   48.9370   40.6200 N.4      11 LYL4        0.0000 
     81 NZ         14.3510   50.2280   39.1550 N.4       7 LYP4        0.0000 
     82 NZ         14.0865   48.4875   41.1180 N.4       3 LYC4        0.0000 
     83 NZ         15.9030   48.0380   41.6160 N.4       7 LYP4        0.0000 
     84 N          13.3105   49.5825   39.8875 N.am      2 SEC2        0.0000 
     85 N          12.2700   48.9370   40.6200 N.am     10 SEL2        0.0000 
     86 N          14.3510   50.2280   39.1550 N.am      6 SEP2        0.0000 
     87 NZ         10.3895   47.9380   38.9190 N.4       3 LYC4        0.0000 
     88 NZ         10.9580   46.9660   39.7210 N.4      11 LYL4        0.0000 
     89 NZ          8.6810   48.9960   37.4780 N.4       7 LYP4        0.0000 
     90 N          10.3810   46.0095   40.4495 N.am      2 SEC2        0.0000 
     91 N          10.9580   46.9660   39.7210 N.am     10 SEL2        0.0000 
     92 N           9.8040   45.0530   41.1780 N.am      6 SEP2        0.0000 
     93 N          10.3895   47.9380   38.9190 N.am      2 SEC2        0.0000 
     94 N           9.8210   48.9100   38.1170 N.am      6 SEP2        0.0000 
     95 NZ         14.3265   47.3660   41.5145 N.4       3 LYC4        0.0000 
     96 NZ         12.7500   46.6940   41.4130 N.4      11 LYL4        0.0000 
     97 N          14.3265   47.3660   41.5145 N.am      2 SEC2        0.0000 
     98 N          12.7500   46.6940   41.4130 N.am     10 SEL2        0.0000 
     99 N          15.9030   48.0380   41.6160 N.am      6 SEP2        0.0000 
    100 N          11.2770   45.8735   41.2955 N.am      2 SEC2        0.0000 
    101 N          12.1505   45.9290   42.4215 N.am      2 SEC2        0.0000 
    102 N          11.5510   45.1640   43.4300 N.am      6 SEP2        0.0000 
    103 N          12.4345   47.1960   42.9740 N.am      2 SEC2        0.0000 
    104 N          12.1190   47.6980   44.5350 N.am      6 SEP2        0.0000 
    105 CA         11.0667   44.7048   34.7832 C.3       4 GLC5        0.0000 
    106 CA         11.2340   42.6740   34.1710 C.3       8 GLP5        0.0000 
    107 CA         20.7665   38.3592   41.6047 C.3       4 GLC5        0.0000 
    108 CA         21.6160   39.0530   43.2820 C.3       8 GLP5        0.0000 
    109 CA         18.0445   37.1794   40.9216 C.3       4 GLC5        0.0000 
    110 CA         16.4420   36.8320   42.1460 C.3       8 GLP5        0.0000 
    111 CA         21.2765   35.8663   36.0535 C.3       4 GLC5        0.0000 
    112 CA         22.2540   35.6000   37.7100 C.3      12 GLL5        0.0000 
    113 CA         25.2530   37.0505   37.4655 C.3       4 GLC5        0.0000 
    114 CA         23.3740   35.7990   36.9280 C.3      12 GLL5        0.0000 
    115 CA         26.9670   37.6350   38.3150 C.3       8 GLP5        0.0000 
    116 CA         21.9967   39.6795   37.8328 C.3       4 GLC5        0.0000 
    117 CA         22.6280   38.1530   36.5430 C.3      12 GLL5        0.0000 
    118 CA         21.0403   36.8905   35.8399 C.3       4 GLC5        0.0000 
    119 CA         21.5170   37.8530   37.3600 C.3      12 GLL5        0.0000 
@<TRIPOS>BOND
@<TRIPOS>SUBSTRUCTURE
     1 ALC1       63 GROUP        1 X    ALC  0     ROOT ALC X 1
     2 SEC2        1 GROUP        1 X    SEC  0     **** SEC X 2
     3 LYC4       42 GROUP        1 X    LYC  0     **** LYC X 4
     4 GLC5        7 GROUP        1 X    GLC  0     **** GLC X 6
     5 ALP1       65 GROUP        1 Y    ALP  0     ROOT ALP Y 8
     6 SEP2        3 GROUP        1 Y    SEP  0     **** SEP Y 9
     7 LYP4       44 GROUP        1 Y    LYP  0     **** LYP Y 11
     8 GLP5        9 GROUP        1 Y    GLP  0     **** GLP Y 13
     9 ALL1       64 GROUP        1 Z    ALL  0     ROOT ALL Z 15
    10 SEL2        2 GROUP        1 Z    SEL  0     **** SEL Z 16
    11 LYL4       43 GROUP        1 Z    LYL  0     **** LYL Z 18
    12 GLL5        8 GROUP        1 Z    GLL  0     **** GLL Z 20
@<TRIPOS>SET

