#    Name: 4h8n_NDP_2_ligand
#    Modification time : Tue Mar 25 00:42:29 2014

@<TRIPOS>MOLECULE
4h8n_NDP_2_ligand
   72    76     1     0     0
SMALL
NO_CHARGES


@<TRIPOS>ATOM
      1 PA         15.5000   41.3920   35.4170 P.3       1 NDP3001     0.0000 
      2 O1A        15.6290   41.3940   33.9800 O.co2     1 NDP3001     0.0000 
      3 O2A        14.1630   40.8840   35.9580 O.co2     1 NDP3001     0.0000 
      4 O5B        15.7120   42.9210   35.9360 O.3       1 NDP3001     0.0000 
      5 C5B        15.5790   43.4370   37.2640 C.3       1 NDP3001     0.0000 
      6 C4B        15.2980   44.9310   37.1200 C.3       1 NDP3001     0.0000 
      7 O4B        14.1130   45.0530   36.3670 O.3       1 NDP3001     0.0000 
      8 C3B        14.9660   45.5290   38.4810 C.3       1 NDP3001     0.0000 
      9 O3B        15.8050   46.6400   38.5730 O.3       1 NDP3001     0.0000 
     10 C2B        13.5090   45.9810   38.4480 C.3       1 NDP3001     0.0000 
     11 O2B        13.3510   47.2610   39.0270 O.3       1 NDP3001     0.0000 
     12 C1B        13.3280   46.0970   36.9480 C.3       1 NDP3001     0.0000 
     13 N9A        11.9590   45.9980   36.4800 N.pl3     1 NDP3001     0.0000 
     14 C8A        10.9780   45.1210   36.7980 C.2       1 NDP3001     0.0000 
     15 N7A         9.9500   45.5010   36.0270 N.2       1 NDP3001     0.0000 
     16 C5A        10.2730   46.5600   35.2540 C.ar      1 NDP3001     0.0000 
     17 C6A         9.5680   47.2880   34.3440 C.ar      1 NDP3001     0.0000 
     18 N6A         8.3220   46.9310   34.0980 N.pl3     1 NDP3001     0.0000 
     19 N1A        10.1480   48.3520   33.6800 N.ar      1 NDP3001     0.0000 
     20 C2A        11.4630   48.7080   33.9570 C.ar      1 NDP3001     0.0000 
     21 N3A        12.1460   47.9540   34.8940 N.ar      1 NDP3001     0.0000 
     22 C4A        11.5260   46.9110   35.5370 C.ar      1 NDP3001     0.0000 
     23 O3         16.7730   40.4750   36.0100 O.3       1 NDP3001     0.0000 
     24 PN         18.2450   40.8700   36.5570 P.3       1 NDP3001     0.0000 
     25 O1N        17.9860   41.7330   37.6730 O.co2     1 NDP3001     0.0000 
     26 O2N        19.2970   41.2160   35.5210 O.co2     1 NDP3001     0.0000 
     27 O5D        18.7150   39.4630   37.1800 O.3       1 NDP3001     0.0000 
     28 C5D        17.7290   38.8170   37.9870 C.3       1 NDP3001     0.0000 
     29 C4D        18.4520   37.7530   38.8660 C.3       1 NDP3001     0.0000 
     30 O4D        19.0490   36.7570   38.0420 O.3       1 NDP3001     0.0000 
     31 C3D        19.5320   38.3080   39.7870 C.3       1 NDP3001     0.0000 
     32 O3D        18.9560   38.9140   40.9680 O.3       1 NDP3001     0.0000 
     33 C2D        20.3020   37.0230   40.0680 C.3       1 NDP3001     0.0000 
     34 O2D        19.5140   36.2580   41.0250 O.3       1 NDP3001     0.0000 
     35 C1D        20.1930   36.2760   38.7280 C.3       1 NDP3001     0.0000 
     36 N1N        21.3710   36.5950   37.8890 N.pl3     1 NDP3001     0.0000 
     37 C2N        22.2540   35.6000   37.7100 C.2       1 NDP3001     0.0000 
     38 C3N        23.3740   35.7990   36.9280 C.2       1 NDP3001     0.0000 
     39 C7N        24.3170   34.6700   36.7050 C.2       1 NDP3001     0.0000 
     40 O7N        25.5770   35.0300   36.3320 O.2       1 NDP3001     0.0000 
     41 N7N        24.0270   33.3640   36.8230 N.am      1 NDP3001     0.0000 
     42 C4N        23.7040   37.1330   36.3040 C.3       1 NDP3001     0.0000 
     43 C5N        22.6280   38.1530   36.5430 C.2       1 NDP3001     0.0000 
     44 C6N        21.5170   37.8530   37.3600 C.2       1 NDP3001     0.0000 
     45 P2B        12.2780   47.4530   40.2530 P.3       1 NDP3001     0.0000 
     46 O1X        12.2700   48.9370   40.6200 O.co2     1 NDP3001     0.0000 
     47 O2X        10.9580   46.9660   39.7210 O.co2     1 NDP3001     0.0000 
     48 O3X        12.7500   46.6940   41.4130 O.co2     1 NDP3001     0.0000 
     49 H          16.4887   43.3193   37.8386 H         1 NDP3001     0.0000 
     50 H          14.7486   42.9877   37.7932 H         1 NDP3001     0.0000 
     51 H          16.1094   45.4193   36.6982 H         1 NDP3001     0.0000 
     52 H          15.1157   44.8138   39.2177 H         1 NDP3001     0.0000 
     53 H          12.9053   45.2296   38.8065 H         1 NDP3001     0.0000 
     54 H          13.7599   47.0611   36.6450 H         1 NDP3001     0.0000 
     55 H          11.0174   44.4161   37.4144 H         1 NDP3001     0.0000 
     56 H           7.8240   47.4963   33.4404 H         1 NDP3001     0.0000 
     57 H           7.9889   46.1276   34.5915 H         1 NDP3001     0.0000 
     58 H          11.9016   49.4910   33.4882 H         1 NDP3001     0.0000 
     59 H          16.9866   38.2923   37.3936 H         1 NDP3001     0.0000 
     60 H          17.2299   39.5055   38.6620 H         1 NDP3001     0.0000 
     61 H          17.6846   37.2847   39.5017 H         1 NDP3001     0.0000 
     62 H          20.1454   38.9466   39.2166 H         1 NDP3001     0.0000 
     63 H          21.2517   37.1964   40.3165 H         1 NDP3001     0.0000 
     64 H          20.1422   35.2382   38.9167 H         1 NDP3001     0.0000 
     65 H          22.1095   34.6714   38.1538 H         1 NDP3001     0.0000 
     66 H          23.8475   36.9993   35.2221 H         1 NDP3001     0.0000 
     67 H          24.6542   37.4996   36.7184 H         1 NDP3001     0.0000 
     68 H          22.7366   39.0550   36.0954 H         1 NDP3001     0.0000 
     69 H          20.8250   38.5904   37.5491 H         1 NDP3001     0.0000 
     70 H          15.2133   47.3865   38.8772 H         1 NDP3001     0.0000 
     71 H          19.1499   39.8909   40.8782 H         1 NDP3001     0.0000 
     72 H          19.7636   35.3036   40.8613 H         1 NDP3001     0.0000 
@<TRIPOS>BOND
     1    2    1 ar   
     2    3    1 ar   
     3    4    1 1    
     4   23    1 1    
     5    5    4 1    
     6    6    5 1    
     7   49    5 1    
     8   50    5 1    
     9    7    6 1    
    10    8    6 1    
    11   51    6 1    
    12   12    7 1    
    13    9    8 1    
    14   10    8 1    
    15   52    8 1    
    16   70    9 1    
    17   11   10 1    
    18   12   10 1    
    19   53   10 1    
    20   45   11 1    
    21   13   12 1    
    22   54   12 1    
    23   14   13 1    
    24   22   13 1    
    25   15   14 2    
    26   55   14 1    
    27   16   15 1    
    28   17   16 ar   
    29   22   16 ar   
    30   18   17 1    
    31   19   17 ar   
    32   56   18 1    
    33   57   18 1    
    34   20   19 ar   
    35   21   20 ar   
    36   58   20 1    
    37   22   21 ar   
    38   24   23 1    
    39   25   24 ar   
    40   26   24 ar   
    41   27   24 1    
    42   28   27 1    
    43   29   28 1    
    44   59   28 1    
    45   60   28 1    
    46   30   29 1    
    47   31   29 1    
    48   61   29 1    
    49   35   30 1    
    50   32   31 1    
    51   33   31 1    
    52   62   31 1    
    53   71   32 1    
    54   34   33 1    
    55   35   33 1    
    56   63   33 1    
    57   72   34 1    
    58   36   35 1    
    59   64   35 1    
    60   37   36 1    
    61   44   36 1    
    62   38   37 2    
    63   65   37 1    
    64   39   38 1    
    65   42   38 1    
    66   40   39 2    
    67   41   39 am   
    68   43   42 1    
    69   66   42 1    
    70   67   42 1    
    71   44   43 2    
    72   68   43 1    
    73   69   44 1    
    74   46   45 ar   
    75   47   45 ar   
    76   48   45 ar   
@<TRIPOS>SUBSTRUCTURE
     1 NDP3001     1 GROUP   
@<TRIPOS>SET

