#    Name: 4njb_3OP_1_INTS_M
#    Modification time : Tue Mar 25 13:11:02 2014

@<TRIPOS>MOLECULE
4njb_3OP_1_INTS_M
   30     0     3     0     0
SMALL
NO_CHARGES


@<TRIPOS>ATOM
      1 CA        -25.1875    3.9925   28.6405 C.3       1 GLC5        0.0000 
      2 CA        -24.6200    5.3670   30.1010 C.3       3 GLL5        0.0000 
      3 CA        -25.7550    2.6180   27.1800 C.3       2 GLP5        0.0000 
      4 CA        -23.4580    6.6295   28.8295 C.3       1 GLC5        0.0000 
      5 CA        -22.2960    7.8920   27.5580 C.3       2 GLP5        0.0000 
      6 CA        -25.1540    6.5345   32.5065 C.3       1 GLC5        0.0000 
      7 CA        -25.1660    4.7220   31.1760 C.3       3 GLL5        0.0000 
      8 CA        -25.1420    8.3470   33.8370 C.3       2 GLP5        0.0000 
      9 CA        -22.0640    1.9345   25.2055 C.3       1 GLC5        0.0000 
     10 CA        -21.6650    3.0200   27.0420 C.3       3 GLL5        0.0000 
     11 CA        -22.4630    0.8490   23.3690 C.3       2 GLP5        0.0000 
     12 CA        -23.2460    2.2430   26.8975 C.3       1 GLC5        0.0000 
     13 CA        -24.8270    1.4660   26.7530 C.3       2 GLP5        0.0000 
     14 CA        -27.1050    5.0685   28.2645 C.3       1 GLC5        0.0000 
     15 CA        -27.2550    5.5210   30.4560 C.3       3 GLL5        0.0000 
     16 CA        -26.9550    4.6160   26.0730 C.3       2 GLP5        0.0000 
     17 CA        -25.5125    4.9255   27.7425 C.3       1 GLC5        0.0000 
     18 CA        -25.3670    6.0440   29.2520 C.3       3 GLL5        0.0000 
     19 CA        -25.6580    3.8070   26.2330 C.3       2 GLP5        0.0000 
     20 CA        -24.3335    6.9670   27.8800 C.3       1 GLC5        0.0000 
     21 CA        -23.3000    7.8900   26.5080 C.3       2 GLP5        0.0000 
     22 CA        -24.2680    3.5650   28.0575 C.3       1 GLC5        0.0000 
     23 CA        -22.7810    4.5120   28.9350 C.3       3 GLL5        0.0000 
     24 CA        -23.8290    2.3405   27.8860 C.3       1 GLC5        0.0000 
     25 CA        -22.8310    3.2150   29.0190 C.3       3 GLL5        0.0000 
     26 CA        -23.7698    4.2540   26.8188 C.3       1 GLC5        0.0000 
     27 CA        -21.6070    4.3410   26.9250 C.3       3 GLL5        0.0000 
     28 CA        -26.7340    6.8530   32.1370 C.3       1 GLC5        0.0000 
     29 CA        -26.5810    8.5440   33.3660 C.3       2 GLP5        0.0000 
     30 CA        -22.3136    6.2492   27.8639 C.3       1 GLC5        0.0000 
@<TRIPOS>BOND
@<TRIPOS>SUBSTRUCTURE
     1 GLC5        1 GROUP        1 X    GLC  0     ROOT GLC X 6
     2 GLP5        3 GROUP        1 Y    GLP  0     ROOT GLP Y 13
     3 GLL5        2 GROUP        1 Z    GLL  0     ROOT GLL Z 20
@<TRIPOS>SET

