#    Name: 4njb_3OP_1_ligand
#    Modification time : Tue Mar 25 13:11:02 2014

@<TRIPOS>MOLECULE
4njb_3OP_1_ligand
   21    22     1     0     0
SMALL
NO_CHARGES


@<TRIPOS>ATOM
      1 C4        -24.6200    5.3670   30.1010 C.ar      1 3OP623      0.0000 
      2 C5        -22.1560    5.0610   27.8840 C.ar      1 3OP623      0.0000 
      3 C6        -25.1660    4.7220   31.1760 C.ar      1 3OP623      0.0000 
      4 C7        -21.6070    4.3410   26.9250 C.ar      1 3OP623      0.0000 
      5 C8        -26.5190    4.8030   31.3600 C.ar      1 3OP623      0.0000 
      6 C9        -21.6650    3.0200   27.0420 C.ar      1 3OP623      0.0000 
      7 C10       -27.2550    5.5210   30.4560 C.ar      1 3OP623      0.0000 
      8 N12       -26.6560    6.1370   29.4050 N.ar      1 3OP623      0.0000 
      9 C2        -25.3670    6.0440   29.2520 C.ar      1 3OP623      0.0000 
     10 O13       -23.3060    5.3030   29.9060 O.3       1 3OP623      0.0000 
     11 C3        -22.7810    4.5120   28.9350 C.ar      1 3OP623      0.0000 
     12 N11       -22.3010    2.4630   28.0930 N.ar      1 3OP623      0.0000 
     13 C1        -22.8310    3.2150   29.0190 C.ar      1 3OP623      0.0000 
     14 H         -22.1054    6.1254   27.8293 H         1 3OP623      0.0000 
     15 H         -24.5782    4.1927   31.8258 H         1 3OP623      0.0000 
     16 H         -21.1481    4.7845   26.1116 H         1 3OP623      0.0000 
     17 H         -26.9703    4.3388   32.1532 H         1 3OP623      0.0000 
     18 H         -21.2205    2.4026   26.3243 H         1 3OP623      0.0000 
     19 H         -28.2879    5.5925   30.5808 H         1 3OP623      0.0000 
     20 H         -24.8982    6.5232   28.4243 H         1 3OP623      0.0000 
     21 H         -23.3094    2.7593   29.8520 H         1 3OP623      0.0000 
@<TRIPOS>BOND
     1    3    1 ar   
     2    9    1 ar   
     3   10    1 1    
     4    4    2 ar   
     5   11    2 ar   
     6   14    2 1    
     7    5    3 ar   
     8   15    3 1    
     9    6    4 ar   
    10   16    4 1    
    11    7    5 ar   
    12   17    5 1    
    13   12    6 ar   
    14   18    6 1    
    15    8    7 ar   
    16   19    7 1    
    17    9    8 ar   
    18   20    9 1    
    19   11   10 1    
    20   13   11 ar   
    21   13   12 ar   
    22   21   13 1    
@<TRIPOS>SUBSTRUCTURE
     1 3OP623      1 GROUP   
@<TRIPOS>SET

