#    Name: 3F4X_1_CAVITY_N1_6.mol2
#    Modification time : Mon Mar 10 15:27:29 2014

@<TRIPOS>MOLECULE
3F4X_1_CAVITY_N1_6.mol2
   77     0     6     0     0
SMALL
NO_CHARGES


@<TRIPOS>ATOM
      1 DU          0.4891    4.0750    9.7019 H         6 CUB7        0.0000 
      2 DU         -0.5821    5.1247    9.6809 H         6 CUB7        0.0000 
      3 CA          0.2172    3.7685    8.2590 C.3       5 GLY6        0.0000 
      4 CA         -1.1261    4.5118    6.7950 C.3       5 GLY6        0.0000 
      5 CZ         -2.9228    7.1168   14.3769 C.ar      4 PHE5        0.0000 
      6 N          -1.0523    4.7109   12.9760 N.2       2 ALA2        0.0000 
      7 DU         -2.1235    5.7606   12.9550 H         6 CUB7        0.0000 
      8 N          -0.2530    3.3547   11.5541 N.2       2 ALA2        0.0000 
      9 DU         -1.3242    4.4044   11.5331 H         6 CUB7        0.0000 
     10 CA         -0.5250    3.0483   10.1111 C.3       5 GLY6        0.0000 
     11 O          -1.5962    4.0980   10.0901 O.2       2 ALA2        0.0000 
     12 DU         -2.6675    5.1477   10.0691 H         6 CUB7        0.0000 
     13 DU         -3.7388    6.1974   10.0481 H         6 CUB7        0.0000 
     14 O          -0.7969    2.7418    8.6682 O.2       2 ALA2        0.0000 
     15 O          -1.8682    3.7915    8.6472 O.2       2 ALA2        0.0000 
     16 O          -2.9395    4.8412    8.6261 O.2       2 ALA2        0.0000 
     17 CA         -3.9369    6.0901   14.7861 C.3       5 GLY6        0.0000 
     18 OG         -3.1376    4.7339   13.3642 O.2       1 SER1        0.0000 
     19 DU         -4.2089    5.7836   13.3432 H         6 CUB7        0.0000 
     20 CZ         -5.2802    6.8334   13.3222 C.ar      4 PHE5        0.0000 
     21 OG         -1.2671    2.3280   11.9633 O.2       1 SER1        0.0000 
     22 OG         -2.3383    3.3777   11.9423 O.2       1 SER1        0.0000 
     23 DU         -3.4096    4.4274   11.9212 H         6 CUB7        0.0000 
     24 O          -4.4809    5.4772   11.9002 O.2       2 ALA2        0.0000 
     25 O          -1.5390    2.0215   10.5203 O.2       2 ALA2        0.0000 
     26 O          -2.6103    3.0713   10.4993 O.2       2 ALA2        0.0000 
     27 N          -3.6816    4.1210   10.4783 N.2       2 ALA2        0.0000 
     28 O          -3.9536    3.8145    9.0353 O.2       2 ALA2        0.0000 
     29 OG         -3.8797    4.0136   15.2164 O.2       1 SER1        0.0000 
     30 CA         -4.9510    5.0634   15.1953 C.3       5 GLY6        0.0000 
     31 CZ         -6.0223    6.1131   15.1743 C.ar      4 PHE5        0.0000 
     32 OG         -4.1517    3.7072   13.7734 O.2       1 SER1        0.0000 
     33 O          -5.2230    4.7569   13.7524 O.2       2 ALA2        0.0000 
     34 O          -6.2943    5.8066   13.7314 O.2       2 ALA2        0.0000 
     35 OG         -3.3524    2.3510   12.3515 O.2       1 SER1        0.0000 
     36 O          -4.4237    3.4007   12.3305 O.2       2 ALA2        0.0000 
     37 CZ         -1.4819   -0.0549   10.9506 C.ar      4 PHE5        0.0000 
     38 O          -2.5531    0.9948   10.9296 O.2       2 ALA2        0.0000 
     39 O          -3.6244    2.0445   10.9085 O.2       2 ALA2        0.0000 
     40 O          -4.6957    3.0943   10.8875 O.2       2 ALA2        0.0000 
     41 CA         -3.5506    2.2437   17.0895 C.3       5 GLY6        0.0000 
     42 CA         -4.6219    3.2934   17.0685 C.3       5 GLY6        0.0000 
     43 CA         -5.6931    4.3431   17.0475 C.3       5 GLY6        0.0000 
     44 CA         -6.7644    5.3928   17.0265 C.3       5 GLY6        0.0000 
     45 OG         -3.8226    1.9372   15.6466 O.2       1 SER1        0.0000 
     46 OG         -4.8938    2.9869   15.6256 O.2       1 SER1        0.0000 
     47 CA         -5.9651    4.0366   15.6045 C.3       5 GLY6        0.0000 
     48 OG         -4.0945    1.6307   14.2036 O.2       1 SER1        0.0000 
     49 O          -5.1658    2.6805   14.1826 O.2       2 ALA2        0.0000 
     50 O          -6.2371    3.7302   14.1616 O.2       2 ALA2        0.0000 
     51 CA         -3.2952    0.2745   12.7817 C.3       5 GLY6        0.0000 
     52 OG         -4.3665    1.3243   12.7607 O.2       1 SER1        0.0000 
     53 O          -5.4378    2.3740   12.7397 O.2       2 ALA2        0.0000 
     54 CA         -2.4960   -1.0816   11.3598 C.3       5 GLY6        0.0000 
     55 CA         -3.5672   -0.0319   11.3388 C.3       5 GLY6        0.0000 
     56 O          -4.6385    1.0178   11.3177 O.2       2 ALA2        0.0000 
     57 O          -5.7098    2.0675   11.2967 O.2       2 ALA2        0.0000 
     58 CA         -2.7679   -1.3881    9.9168 C.3       5 GLY6        0.0000 
     59 O          -3.8392   -0.3384    9.8958 O.2       2 ALA2        0.0000 
     60 O          -4.9105    0.7113    9.8748 O.2       2 ALA2        0.0000 
     61 CA         -5.3640    2.5731   18.9207 C.3       5 GLY6        0.0000 
     62 CA         -6.4352    3.6229   18.8997 C.3       5 GLY6        0.0000 
     63 O          -4.5647    1.2169   17.4988 O.2       2 ALA2        0.0000 
     64 CA         -5.6359    2.2667   17.4777 C.3       5 GLY6        0.0000 
     65 CA         -6.7072    3.3164   17.4567 C.3       5 GLY6        0.0000 
     66 OD1        -4.8367    0.9105   16.0558 O.3       3 ASP3        0.0000 
     67 OD1        -5.9079    1.9602   16.0348 O.3       3 ASP3        0.0000 
     68 CA         -6.9792    3.0099   16.0138 C.3       5 GLY6        0.0000 
     69 N          -5.1086    0.6040   14.6129 N.2       2 ALA2        0.0000 
     70 N          -4.3093   -0.7522   13.1909 N.2       2 ALA2        0.0000 
     71 CA         -3.5100   -2.1084   11.7690 C.3       5 GLY6        0.0000 
     72 CA         -4.5813   -1.0586   11.7480 C.3       5 GLY6        0.0000 
     73 CZ         -6.3781    1.5464   19.3299 C.ar      4 PHE5        0.0000 
     74 OG         -5.5788    0.1902   17.9080 O.2       1 SER1        0.0000 
     75 CZ         -6.6500    1.2399   17.8869 C.ar      4 PHE5        0.0000 
     76 CA         -7.7213    2.2897   17.8659 C.3       5 GLY6        0.0000 
     77 OD1        -6.9220    0.9335   16.4440 O.3       3 ASP3        0.0000 
@<TRIPOS>BOND
@<TRIPOS>SUBSTRUCTURE
     1 SER1       18 GROUP   
     2 ALA2        6 GROUP   
     3 ASP3       66 GROUP   
     4 PHE5        5 GROUP   
     5 GLY6        3 GROUP   
     6 CUB7        1 GROUP   
@<TRIPOS>SET

