#    Name: 3f4x_KLT_1_INTS_M
#    Modification time : Tue Mar 25 03:10:21 2014

@<TRIPOS>MOLECULE
3f4x_KLT_1_INTS_M
   41     0    12     0     0
SMALL
NO_CHARGES


@<TRIPOS>ATOM
      1 N          -4.0555    0.8040   18.6200 N.am      2 SEC2        0.0000 
      2 N          -5.3770    1.2270   18.1710 N.am     10 SEL2        0.0000 
      3 N          -2.7340    0.3810   19.0690 N.am      6 SEP2        0.0000 
      4 O          -4.4540   -1.1360   16.8645 O.2       1 ALC1        0.0000 
      5 O          -5.2300   -0.2680   16.1110 O.2       9 ALL1        0.0000 
      6 O          -3.6780   -2.0040   17.6180 O.2       5 ALP1        0.0000 
      7 Zn         -5.8980   -0.9130   15.7120 Zn        3 ZIC7        0.0000 
      8 Zn         -5.2300   -0.2680   16.1110 Zn       11 ZIL7        0.0000 
      9 Zn         -6.5660   -1.5580   15.3130 Zn        7 ZIP7        0.0000 
     10 CA         -2.5975    1.3895   14.5750 C.3       4 GLC5        0.0000 
     11 CA         -4.6370    2.3300   14.5210 C.3      12 GLL5        0.0000 
     12 CA         -0.5580    0.4490   14.6290 C.3       8 GLP5        0.0000 
     13 CA         -8.0960    4.8415   16.7070 C.3       4 GLC5        0.0000 
     14 CA         -6.8690    3.8740   17.4770 C.3      12 GLL5        0.0000 
     15 CA         -9.3230    5.8090   15.9370 C.3       8 GLP5        0.0000 
     16 CA         -6.8210    5.8335   18.1515 C.3       4 GLC5        0.0000 
     17 CA         -6.7730    7.7930   18.8260 C.3       8 GLP5        0.0000 
     18 CA         -8.1715    3.5705   18.4310 C.3       4 GLC5        0.0000 
     19 CA         -9.4740    3.2670   19.3850 C.3       8 GLP5        0.0000 
     20 CA         -5.4795    4.6840   18.0470 C.3       4 GLC5        0.0000 
     21 CA         -4.0900    5.4940   18.6170 C.3       8 GLP5        0.0000 
     22 CA         -6.5660    4.3730   19.6180 C.3       4 GLC5        0.0000 
     23 CA         -6.2630    4.8720   21.7590 C.3       8 GLP5        0.0000 
     24 CA         -7.4570    5.3210   15.6270 C.3       4 GLC5        0.0000 
     25 CA         -5.5910    4.8330   15.3170 C.3      12 GLL5        0.0000 
     26 N          -2.0345    1.9060   13.6220 N.am      2 SEC2        0.0000 
     27 N          -2.6180    2.2380   12.5430 N.am     10 SEL2        0.0000 
     28 N          -1.4510    1.5740   14.7010 N.am      6 SEP2        0.0000 
     29 CA         -1.7335    5.5080   15.4320 C.3       4 GLC5        0.0000 
     30 CA         -1.6230    5.2360   13.2530 C.3      12 GLL5        0.0000 
     31 CA         -1.8440    5.7800   17.6110 C.3       8 GLP5        0.0000 
     32 N          -5.3835    4.2295    8.8510 N.am      2 SEC2        0.0000 
     33 N          -4.2990    4.7760    9.4410 N.am     10 SEL2        0.0000 
     34 N          -6.4680    3.6830    8.2610 N.am      6 SEP2        0.0000 
     35 CA         -7.6645    3.2583   15.4947 C.3       4 GLC5        0.0000 
     36 CA         -5.4270    2.4330   15.6740 C.3      12 GLL5        0.0000 
     37 CA         -9.6670    3.4540   15.1230 C.3       8 GLP5        0.0000 
     38 CA         -4.8582    4.7209   17.1044 C.3       4 GLC5        0.0000 
     39 CA         -5.8970    3.6920   16.0590 C.3      12 GLL5        0.0000 
     40 CA          0.1270    5.9908   14.3255 C.3       4 GLC5        0.0000 
     41 CA          1.5550    6.1560   15.5900 C.3       8 GLP5        0.0000 
@<TRIPOS>BOND
@<TRIPOS>SUBSTRUCTURE
     1 ALC1        4 GROUP        1 X    ALC  0     ROOT ALC X 1
     2 SEC2        1 GROUP        1 X    SEC  0     **** SEC X 2
     3 ZIC7        7 GROUP        1 X    ZIC  0     **** ZIC X 5
     4 GLC5       10 GROUP        1 X    GLC  0     **** GLC X 6
     5 ALP1        6 GROUP        1 Y    ALP  0     ROOT ALP Y 8
     6 SEP2        3 GROUP        1 Y    SEP  0     **** SEP Y 9
     7 ZIP7        9 GROUP        1 Y    ZIP  0     **** ZIP Y 12
     8 GLP5       12 GROUP        1 Y    GLP  0     **** GLP Y 13
     9 ALL1        5 GROUP        1 Z    ALL  0     ROOT ALL Z 15
    10 SEL2        2 GROUP        1 Z    SEL  0     **** SEL Z 16
    11 ZIL7        8 GROUP        1 Z    ZIL  0     **** ZIL Z 19
    12 GLL5       11 GROUP        1 Z    GLL  0     **** GLL Z 20
@<TRIPOS>SET

