#    Name: 3f4x_KLT_1_ligand
#    Modification time : Tue Mar 25 03:10:21 2014

@<TRIPOS>MOLECULE
3f4x_KLT_1_ligand
   32    34     1     0     0
SMALL
NO_CHARGES


@<TRIPOS>ATOM
      1 O1         -5.3770    1.2270   18.1710 O.2       1 KLT300      0.0000 
      2 S1         -5.8570    0.9990   16.6590 S.o2      1 KLT300      0.0000 
      3 O2         -7.3460    0.8780   16.6530 O.2       1 KLT300      0.0000 
      4 N1         -5.2300   -0.2680   16.1110 N.pl3     1 KLT300      0.0000 
      5 C1         -5.4270    2.4330   15.6740 C.ar      1 KLT300      0.0000 
      6 C2         -4.6370    2.3300   14.5210 C.ar      1 KLT300      0.0000 
      7 C3         -5.8970    3.6920   16.0590 C.ar      1 KLT300      0.0000 
      8 CL1        -6.8690    3.8740   17.4770 Cl        1 KLT300      0.0000 
      9 C4         -5.5910    4.8330   15.3170 C.ar      1 KLT300      0.0000 
     10 C5         -4.8060    4.7270   14.1810 C.ar      1 KLT300      0.0000 
     11 C6         -4.3290    3.4790   13.7730 C.ar      1 KLT300      0.0000 
     12 C7         -3.4490    3.4020   12.5090 C.3       1 KLT300      0.0000 
     13 O8         -2.6180    2.2380   12.5430 O.3       1 KLT300      0.0000 
     14 C9         -2.5710    4.6590   12.4000 C.ar      1 KLT300      0.0000 
     15 C10        -1.6230    5.2360   13.2530 C.ar      1 KLT300      0.0000 
     16 C11        -0.9790    6.4150   12.8690 C.ar      1 KLT300      0.0000 
     17 C12        -1.2780    7.0140   11.6440 C.ar      1 KLT300      0.0000 
     18 C13        -2.2260    6.4400   10.7990 C.ar      1 KLT300      0.0000 
     19 C14        -2.8700    5.2600   11.1760 C.ar      1 KLT300      0.0000 
     20 C15        -3.8380    4.4890   10.5390 C.2       1 KLT300      0.0000 
     21 O3         -4.2990    4.7760    9.4410 O.2       1 KLT300      0.0000 
     22 N2         -4.2210    3.4250   11.2460 N.am      1 KLT300      0.0000 
     23 H          -4.3361   -0.5142   16.4856 H         1 KLT300      0.0000 
     24 H          -4.2827    1.4163   14.2216 H         1 KLT300      0.0000 
     25 H          -5.9495    5.7483   15.6165 H         1 KLT300      0.0000 
     26 H          -4.5708    5.5654   13.6331 H         1 KLT300      0.0000 
     27 H          -1.4042    4.7973   14.1499 H         1 KLT300      0.0000 
     28 H          -0.2817    6.8430   13.4920 H         1 KLT300      0.0000 
     29 H          -0.7981    7.8788   11.3661 H         1 KLT300      0.0000 
     30 H          -2.4511    6.8828    9.9013 H         1 KLT300      0.0000 
     31 H          -4.8611    2.7572   11.0506 H         1 KLT300      0.0000 
     32 H          -3.2217    1.4817   12.2910 H         1 KLT300      0.0000 
@<TRIPOS>BOND
     1    2    1 2    
     2    3    2 2    
     3    4    2 1    
     4    5    2 1    
     5   23    4 1    
     6    6    5 ar   
     7    7    5 ar   
     8   11    6 ar   
     9   24    6 1    
    10    8    7 1    
    11    9    7 ar   
    12   10    9 ar   
    13   25    9 1    
    14   11   10 ar   
    15   26   10 1    
    16   12   11 1    
    17   13   12 1    
    18   14   12 1    
    19   22   12 1    
    20   32   13 1    
    21   15   14 ar   
    22   19   14 ar   
    23   16   15 ar   
    24   27   15 1    
    25   17   16 ar   
    26   28   16 1    
    27   18   17 ar   
    28   29   17 1    
    29   19   18 ar   
    30   30   18 1    
    31   20   19 1    
    32   21   20 2    
    33   22   20 am   
    34   31   22 1    
@<TRIPOS>SUBSTRUCTURE
     1 KLT300      1 GROUP   
@<TRIPOS>SET

