#    Name: 3T8F_1_CAVITY_N1_6.mol2
#    Modification time : Tue Mar 11 02:55:01 2014

@<TRIPOS>MOLECULE
3T8F_1_CAVITY_N1_6.mol2
   75     0     7     0     0
SMALL
NO_CHARGES


@<TRIPOS>ATOM
      1 N           8.9825   44.9350   -2.3815 N.2       2 ALA2        0.0000 
      2 CZ         15.5191   42.1018   -8.0820 C.ar      5 PHE5        0.0000 
      3 CA         14.2883   42.5094   -7.3277 C.3       6 GLY6        0.0000 
      4 O          13.0575   42.9171   -6.5734 O.2       2 ALA2        0.0000 
      5 DU         13.4400   42.1220   -8.5026 H         7 CUB7        0.0000 
      6 O          12.2092   42.5296   -7.7483 O.2       2 ALA2        0.0000 
      7 O          10.9784   42.9373   -6.9940 O.2       2 ALA2        0.0000 
      8 O           9.7476   43.3449   -6.2398 O.2       2 ALA2        0.0000 
      9 OG         11.3609   42.1422   -8.9232 O.2       1 SER1        0.0000 
     10 N          10.1301   42.5498   -8.1689 N.2       2 ALA2        0.0000 
     11 O           8.8993   42.9574   -7.4146 O.2       2 ALA2        0.0000 
     12 CZ         10.5126   41.7548  -10.0980 C.ar      5 PHE5        0.0000 
     13 N           8.8581   43.5444   -1.8331 N.2       2 ALA2        0.0000 
     14 CZ          7.6272   43.9521   -1.0788 C.ar      5 PHE5        0.0000 
     15 CA          6.3964   44.3597   -0.3245 C.3       6 GLY6        0.0000 
     16 N          12.9330   41.5265   -6.0250 N.2       2 ALA2        0.0000 
     17 O           9.2406   42.7494   -3.7622 O.2       2 ALA2        0.0000 
     18 O           8.0098   43.1570   -3.0079 O.2       2 ALA2        0.0000 
     19 CA          6.7790   43.5646   -2.2537 C.3       6 GLY6        0.0000 
     20 CA         14.5464   40.3238   -8.7084 C.3       6 GLY6        0.0000 
     21 CA         13.3156   40.7314   -7.9541 C.3       6 GLY6        0.0000 
     22 O          12.0848   41.1390   -7.1999 O.2       2 ALA2        0.0000 
     23 O          10.8539   41.5467   -6.4456 O.2       2 ALA2        0.0000 
     24 O           9.6231   41.9543   -5.6913 O.2       2 ALA2        0.0000 
     25 O           8.3923   42.3619   -4.9370 O.2       2 ALA2        0.0000 
     26 DU          7.1615   42.7696   -4.1828 H         7 CUB7        0.0000 
     27 DU          5.9307   43.1772   -3.4285 H         7 CUB7        0.0000 
     28 OG         12.4673   40.3440   -9.1290 O.2       1 SER1        0.0000 
     29 OG         11.2365   40.7516   -8.3747 O.2       1 SER1        0.0000 
     30 CA          6.3132   42.3821   -5.3576 C.3       6 GLY6        0.0000 
     31 CA          5.0824   42.7897   -4.6034 C.3       6 GLY6        0.0000 
     32 CZ          8.7336   42.1539   -1.2846 C.ar      5 PHE5        0.0000 
     33 CZ          7.5028   42.5615   -0.5304 C.ar      5 PHE5        0.0000 
     34 N           9.1161   41.3588   -3.2138 N.2       2 ALA2        0.0000 
     35 CA          7.8853   41.7664   -2.4595 C.3       6 GLY6        0.0000 
     36 CA          6.6545   42.1740   -1.7052 C.3       6 GLY6        0.0000 
     37 CA         13.1911   39.3408   -7.4057 C.3       6 GLY6        0.0000 
     38 N          11.9603   39.7485   -6.6514 N.2       2 ALA2        0.0000 
     39 N          10.7295   40.1561   -5.8972 N.2       2 ALA2        0.0000 
     40 N           9.4987   40.5637   -5.1429 N.2       2 ALA2        0.0000 
     41 N           8.2679   40.9713   -4.3886 N.2       2 ALA2        0.0000 
     42 O           7.0370   41.3790   -3.6343 O.2       2 ALA2        0.0000 
     43 CA          5.8062   41.7866   -2.8801 C.3       6 GLY6        0.0000 
     44 OG         11.1120   39.3610   -7.8263 O.2       1 SER1        0.0000 
     45 CA          6.1887   40.9915   -4.8092 C.3       6 GLY6        0.0000 
     46 N           9.8400   40.3556   -1.4905 N.2       2 ALA2        0.0000 
     47 CA          8.6092   40.7633   -0.7362 C.3       6 GLY6        0.0000 
     48 N          11.4533   39.1529   -4.1739 N.2       2 ALA2        0.0000 
     49 N          10.2225   39.5606   -3.4196 N.2       2 ALA2        0.0000 
     50 N           8.9917   39.9682   -2.6653 N.2       2 ALA2        0.0000 
     51 OD1        11.8359   38.3579   -6.1030 O.3       3 ASP3        0.0000 
     52 OD1        10.6050   38.7655   -5.3487 O.3       3 ASP3        0.0000 
     53 N           9.3742   39.1731   -4.5944 N.2       2 ALA2        0.0000 
     54 CA          8.1434   39.5808   -3.8402 C.3       6 GLY6        0.0000 
     55 O           6.9126   39.9884   -3.0859 O.2       2 ALA2        0.0000 
     56 CA         10.5638   39.3525    0.2328 C.3       6 GLY6        0.0000 
     57 NZ         10.9464   38.5574   -1.6963 N.2       4 LYS4        0.0000 
     58 CA          9.7155   38.9651   -0.9420 C.3       6 GLY6        0.0000 
     59 NZ         10.0981   38.1700   -2.8711 N.2       4 LYS4        0.0000 
     60 CA          8.8672   38.5776   -2.1169 C.3       6 GLY6        0.0000 
     61 OD1        10.4806   37.3749   -4.8003 O.3       3 ASP3        0.0000 
     62 N           9.2498   37.7825   -4.0460 N.2       2 ALA2        0.0000 
     63 O           8.0190   38.1902   -3.2917 O.2       2 ALA2        0.0000 
     64 CA         10.4394   37.9619    0.7813 C.3       6 GLY6        0.0000 
     65 CZ          9.2086   38.3695    1.5355 C.ar      5 PHE5        0.0000 
     66 NZ         10.8219   37.1668   -1.1479 N.2       4 LYS4        0.0000 
     67 CA          9.5911   37.5745   -0.3936 C.3       6 GLY6        0.0000 
     68 CA          8.3603   37.9821    0.3607 C.3       6 GLY6        0.0000 
     69 NZ          9.9736   36.7794   -2.3227 N.2       4 LYS4        0.0000 
     70 O           8.7428   37.1870   -1.5684 O.2       2 ALA2        0.0000 
     71 CA         10.6975   35.7763   -0.5994 C.3       6 GLY6        0.0000 
     72 CA          9.4666   36.1839    0.1549 C.3       6 GLY6        0.0000 
     73 CA          8.2358   36.5915    0.9091 C.3       6 GLY6        0.0000 
     74 CA          9.8492   35.3888   -1.7743 C.3       6 GLY6        0.0000 
     75 CA          8.6184   35.7964   -1.0200 C.3       6 GLY6        0.0000 
@<TRIPOS>BOND
@<TRIPOS>SUBSTRUCTURE
     1 SER1        9 GROUP   
     2 ALA2        1 GROUP   
     3 ASP3       51 GROUP   
     4 LYS4       57 GROUP   
     5 PHE5        2 GROUP   
     6 GLY6        3 GROUP   
     7 CUB7        5 GROUP   
@<TRIPOS>SET

