#    Name: 3t8f_UBU_1_INTS_M
#    Modification time : Mon Mar 24 19:19:39 2014

@<TRIPOS>MOLECULE
3t8f_UBU_1_INTS_M
   56     0    12     0     0
SMALL
NO_CHARGES


@<TRIPOS>ATOM
      1 CA         16.0665   40.5490   -8.5445 C.3       4 GLC5        0.0000 
      2 CA         16.1130   41.3050  -10.6200 C.3      12 GLL5        0.0000 
      3 CA         16.0200   39.7930   -6.4690 C.3       8 GLP5        0.0000 
      4 CA         11.9535   40.6230  -11.4030 C.3       4 GLC5        0.0000 
      5 CA         13.6390   41.6290  -10.8870 C.3      12 GLL5        0.0000 
      6 CA         10.2680   39.6170  -11.9190 C.3       8 GLP5        0.0000 
      7 O          10.8560   39.3345   -8.9325 O.2       1 ALC1        0.0000 
      8 O          12.1100   39.9820   -8.0360 O.2       9 ALL1        0.0000 
      9 O           9.6020   38.6870   -9.8290 O.2       5 ALP1        0.0000 
     10 CA         14.0060   39.9160   -6.5320 C.3       4 GLC5        0.0000 
     11 CA         11.9920   40.0390   -6.5950 C.3      12 GLL5        0.0000 
     12 CA          9.9205   40.3130   -7.3795 C.3       4 GLC5        0.0000 
     13 CA          7.8490   40.5870   -8.1640 C.3       8 GLP5        0.0000 
     14 N          13.4075   36.6760   -5.4675 N.am      2 SEC2        0.0000 
     15 N          12.6570   37.4160   -6.1550 N.am     10 SEL2        0.0000 
     16 N          14.1580   35.9360   -4.7800 N.am      6 SEP2        0.0000 
     17 Zn         10.0255   37.0795   -6.7530 Zn        3 ZIC7        0.0000 
     18 Zn         10.1450   38.0310   -6.5100 Zn       11 ZIL7        0.0000 
     19 Zn          9.9060   36.1280   -6.9960 Zn        7 ZIP7        0.0000 
     20 N           9.0465   38.8155   -6.9000 N.am      2 SEC2        0.0000 
     21 N          10.1450   38.0310   -6.5100 N.am     10 SEL2        0.0000 
     22 N           7.9480   39.6000   -7.2900 N.am      6 SEP2        0.0000 
     23 CA         10.2805   36.3260   -4.1035 C.3       4 GLC5        0.0000 
     24 CA         10.0600   38.2960   -3.5730 C.3      12 GLL5        0.0000 
     25 CA         10.5010   34.3560   -4.6340 C.3       8 GLP5        0.0000 
     26 O          10.4930   41.1340   -3.5990 O.2       1 ALC1        0.0000 
     27 O           9.1610   40.5190   -3.9390 O.2       9 ALL1        0.0000 
     28 O          11.8250   41.7490   -3.2590 O.2       5 ALP1        0.0000 
     29 CA          7.4090   40.4300   -5.4040 C.3       4 GLC5        0.0000 
     30 CA          8.1190   41.5310   -4.0270 C.3      12 GLL5        0.0000 
     31 CA          6.6990   39.3290   -6.7810 C.3       8 GLP5        0.0000 
     32 CA          9.2695   39.6570    1.7305 C.3       4 GLC5        0.0000 
     33 CA          9.5890   38.2800    0.2590 C.3      12 GLL5        0.0000 
     34 CA          8.9500   41.0340    3.2020 C.3       8 GLP5        0.0000 
     35 CA         11.0090   39.3730    0.9680 C.3       4 GLC5        0.0000 
     36 CA         12.4290   40.4660    1.6770 C.3       8 GLP5        0.0000 
     37 CA         10.0900   36.8500    1.3475 C.3       4 GLC5        0.0000 
     38 CA         10.5910   35.4200    2.4360 C.3       8 GLP5        0.0000 
     39 CA          9.8650   35.8870    0.5890 C.3       4 GLC5        0.0000 
     40 CA          9.1390   36.3540   -1.2580 C.3      12 GLL5        0.0000 
     41 CA          9.5150   34.9065   -2.5395 C.3       4 GLC5        0.0000 
     42 CA          9.8910   33.4590   -3.8210 C.3       8 GLP5        0.0000 
     43 CA          7.4160   35.5465   -0.6585 C.3       4 GLC5        0.0000 
     44 CA          5.6930   34.7390   -0.0590 C.3       8 GLP5        0.0000 
     45 N           6.3365   38.6200   -3.7190 N.am      2 SEC2        0.0000 
     46 N           7.7520   38.7630   -3.8570 N.am     10 SEL2        0.0000 
     47 N           4.9210   38.4770   -3.5810 N.am      6 SEP2        0.0000 
     48 N           6.9000   37.6200   -3.6180 N.am      2 SEC2        0.0000 
     49 N           6.0480   36.4770   -3.3790 N.am      6 SEP2        0.0000 
     50 CA         18.8188   39.4980  -10.8530 C.3       4 GLC5        0.0000 
     51 CA         17.3540   40.8910  -11.0960 C.3      12 GLL5        0.0000 
     52 CA         20.2320   38.3830   -9.9740 C.3       8 GLP5        0.0000 
     53 CA          7.1670   40.8197   -1.9758 C.3       4 GLC5        0.0000 
     54 CA          6.1780   39.6240   -0.5050 C.3       8 GLP5        0.0000 
     55 CA          7.7370   38.4183   -0.6826 C.3       4 GLC5        0.0000 
     56 CA          9.3170   37.8620   -1.1840 C.3      12 GLL5        0.0000 
@<TRIPOS>BOND
@<TRIPOS>SUBSTRUCTURE
     1 ALC1        7 GROUP        1 X    ALC  0     ROOT ALC X 1
     2 SEC2       14 GROUP        1 X    SEC  0     **** SEC X 2
     3 ZIC7       17 GROUP        1 X    ZIC  0     **** ZIC X 5
     4 GLC5        1 GROUP        1 X    GLC  0     **** GLC X 6
     5 ALP1        9 GROUP        1 Y    ALP  0     ROOT ALP Y 8
     6 SEP2       16 GROUP        1 Y    SEP  0     **** SEP Y 9
     7 ZIP7       19 GROUP        1 Y    ZIP  0     **** ZIP Y 12
     8 GLP5        3 GROUP        1 Y    GLP  0     **** GLP Y 13
     9 ALL1        8 GROUP        1 Z    ALL  0     ROOT ALL Z 15
    10 SEL2       15 GROUP        1 Z    SEL  0     **** SEL Z 16
    11 ZIL7       18 GROUP        1 Z    ZIL  0     **** ZIL Z 19
    12 GLL5        2 GROUP        1 Z    GLL  0     **** GLL Z 20
@<TRIPOS>SET

