#    Name: 3t8f_UBU_1_ligand
#    Modification time : Mon Mar 24 19:19:39 2014

@<TRIPOS>MOLECULE
3t8f_UBU_1_ligand
   52    52     1     0     0
SMALL
NO_CHARGES


@<TRIPOS>ATOM
      1 C23        16.1130   41.3050  -10.6200 C.ar      1 UBU317      0.0000 
      2 C22        17.3540   40.8910  -11.0960 C.ar      1 UBU317      0.0000 
      3 C21        17.4570   40.3350  -12.3680 C.ar      1 UBU317      0.0000 
      4 C20        16.3250   40.2050  -13.1610 C.ar      1 UBU317      0.0000 
      5 C19        15.0830   40.6260  -12.6900 C.ar      1 UBU317      0.0000 
      6 C1         14.9790   41.1700  -11.4150 C.ar      1 UBU317      0.0000 
      7 C2         13.6390   41.6290  -10.8870 C.3       1 UBU317      0.0000 
      8 O3         13.0980   40.5860  -10.0830 O.3       1 UBU317      0.0000 
      9 C4         12.9650   40.7760   -8.6620 C.2       1 UBU317      0.0000 
     10 O26        13.6530   41.6210   -8.1080 O.2       1 UBU317      0.0000 
     11 N5         12.1100   39.9820   -8.0360 N.am      1 UBU317      0.0000 
     12 C6         11.9920   40.0390   -6.5950 C.3       1 UBU317      0.0000 
     13 P7         11.4770   38.4460   -5.9170 P.3       1 UBU317      0.0000 
     14 O24        12.6570   37.4160   -6.1550 O.co2     1 UBU317      0.0000 
     15 O8         10.1450   38.0310   -6.5100 O.co2     1 UBU317      0.0000 
     16 N9         11.2570   38.7380   -4.2830 N.3       1 UBU317      0.0000 
     17 C10        10.0600   38.2960   -3.5730 C.3       1 UBU317      0.0000 
     18 C11         8.8890   39.2190   -3.8070 C.2       1 UBU317      0.0000 
     19 N12         9.1610   40.5190   -3.9390 N.am      1 UBU317      0.0000 
     20 C13         8.1190   41.5310   -4.0270 C.3       1 UBU317      0.0000 
     21 C14         8.1930   42.5000   -2.8660 C.3       1 UBU317      0.0000 
     22 C15        10.4450   38.3400   -2.0990 C.3       1 UBU317      0.0000 
     23 C16         9.3170   37.8620   -1.1840 C.3       1 UBU317      0.0000 
     24 C17         9.5890   38.2800    0.2590 C.3       1 UBU317      0.0000 
     25 C18         9.1390   36.3540   -1.2580 C.3       1 UBU317      0.0000 
     26 O25         7.7520   38.7630   -3.8570 O.2       1 UBU317      0.0000 
     27 H          16.0344   41.7117   -9.6781 H         1 UBU317      0.0000 
     28 H          18.1907   40.9955  -10.5106 H         1 UBU317      0.0000 
     29 H          18.3712   40.0215  -12.7183 H         1 UBU317      0.0000 
     30 H          16.4012   39.7951  -14.1036 H         1 UBU317      0.0000 
     31 H          14.2507   40.5343  -13.2821 H         1 UBU317      0.0000 
     32 H          12.9965   41.8588  -11.7393 H         1 UBU317      0.0000 
     33 H          13.7935   42.5449  -10.3131 H         1 UBU317      0.0000 
     34 H          11.5047   39.3052   -8.5251 H         1 UBU317      0.0000 
     35 H          11.2168   40.6893   -6.2190 H         1 UBU317      0.0000 
     36 H          12.9148   40.2077   -6.0609 H         1 UBU317      0.0000 
     37 H           9.8109   37.2986   -3.8236 H         1 UBU317      0.0000 
     38 H          10.1434   40.8748   -3.9858 H         1 UBU317      0.0000 
     39 H           7.1220   41.0645   -4.0263 H         1 UBU317      0.0000 
     40 H           8.2101   42.1034   -4.9628 H         1 UBU317      0.0000 
     41 H          10.7137   39.3676   -1.8272 H         1 UBU317      0.0000 
     42 H          11.3269   37.7088   -1.9378 H         1 UBU317      0.0000 
     43 H           8.3923   38.3351   -1.5025 H         1 UBU317      0.0000 
     44 H           9.0692   42.9813   -2.8392 H         1 UBU317      0.0000 
     45 H           7.4774   43.1966   -2.9175 H         1 UBU317      0.0000 
     46 H           8.0869   42.0352   -1.9870 H         1 UBU317      0.0000 
     47 H          10.4431   37.8905    0.6038 H         1 UBU317      0.0000 
     48 H           9.6617   39.2731    0.3505 H         1 UBU317      0.0000 
     49 H           8.8607   37.9814    0.8757 H         1 UBU317      0.0000 
     50 H           9.9681   35.8681   -0.9813 H         1 UBU317      0.0000 
     51 H           8.4011   36.0374   -0.6620 H         1 UBU317      0.0000 
     52 H           8.9174   36.0512   -2.1849 H         1 UBU317      0.0000 
@<TRIPOS>BOND
     1    2    1 ar   
     2    6    1 ar   
     3   27    1 1    
     4    3    2 ar   
     5   28    2 1    
     6    4    3 ar   
     7   29    3 1    
     8    5    4 ar   
     9   30    4 1    
    10    6    5 ar   
    11   31    5 1    
    12    7    6 1    
    13    8    7 1    
    14   32    7 1    
    15   33    7 1    
    16    9    8 1    
    17   10    9 2    
    18   11    9 am   
    19   12   11 1    
    20   34   11 1    
    21   13   12 1    
    22   35   12 1    
    23   36   12 1    
    24   14   13 ar   
    25   15   13 ar   
    26   16   13 1    
    27   17   16 1    
    28   18   17 1    
    29   22   17 1    
    30   37   17 1    
    31   19   18 am   
    32   26   18 2    
    33   20   19 1    
    34   38   19 1    
    35   21   20 1    
    36   39   20 1    
    37   40   20 1    
    38   44   21 1    
    39   45   21 1    
    40   46   21 1    
    41   23   22 1    
    42   41   22 1    
    43   42   22 1    
    44   24   23 1    
    45   25   23 1    
    46   43   23 1    
    47   47   24 1    
    48   48   24 1    
    49   49   24 1    
    50   50   25 1    
    51   51   25 1    
    52   52   25 1    
@<TRIPOS>SUBSTRUCTURE
     1 UBU317      1 GROUP   
@<TRIPOS>SET

