#    Name: 4ku7_PCG_1_INTS_M
#    Modification time : Tue Mar 25 08:57:52 2014

@<TRIPOS>MOLECULE
4ku7_PCG_1_INTS_M
   64     0    12     0     0
SMALL
NO_CHARGES


@<TRIPOS>ATOM
      1 NZ         34.4375   22.8420   33.5435 N.4       3 LYC4        0.0000 
      2 NZ         33.6080   24.0010   33.1710 N.4      11 LYL4        0.0000 
      3 NZ         36.5750   21.4670   33.9300 N.4       7 LYP4        0.0000 
      4 N          33.0875   23.5585   31.8950 N.am      2 SEC2        0.0000 
      5 N          33.6080   24.0010   33.1710 N.am     10 SEL2        0.0000 
      6 N          32.5670   23.1160   30.6190 N.am      6 SEP2        0.0000 
      7 N          34.4375   22.8420   33.5435 N.am      2 SEC2        0.0000 
      8 N          35.2670   21.6830   33.9160 N.am      6 SEP2        0.0000 
      9 N          34.5150   27.3955   32.3815 N.am      2 SEC2        0.0000 
     10 N          33.5660   26.6390   32.9380 N.am     10 SEL2        0.0000 
     11 N          35.4640   28.1520   31.8250 N.am      6 SEP2        0.0000 
     12 N          33.1530   27.8410   32.6695 N.am      2 SEC2        0.0000 
     13 N          32.7400   29.0430   32.4010 N.am      6 SEP2        0.0000 
     14 CA         36.3990   26.0315   35.9170 C.3       4 GLC5        0.0000 
     15 CA         34.4190   26.6830   35.7950 C.3      12 GLL5        0.0000 
     16 CA         38.3790   25.3800   36.0390 C.3       8 GLP5        0.0000 
     17 CA         32.3925   25.2520   38.1850 C.3       4 GLC5        0.0000 
     18 CA         33.1630   26.5210   36.5570 C.3      12 GLL5        0.0000 
     19 CA         31.6220   23.9830   39.8130 C.3       8 GLP5        0.0000 
     20 CA         30.7345   26.4445   33.7855 C.3       4 GLC5        0.0000 
     21 CA         31.9980   26.4820   35.5810 C.3      12 GLL5        0.0000 
     22 CA         29.4710   26.4070   31.9900 C.3       8 GLP5        0.0000 
     23 N          31.9830   24.0745   35.8315 N.am      2 SEC2        0.0000 
     24 N          32.0530   25.3390   34.6740 N.am     10 SEL2        0.0000 
     25 N          31.9130   22.8100   36.9890 N.am      6 SEP2        0.0000 
     26 N          31.2295   24.3930   33.5300 N.am      2 SEC2        0.0000 
     27 N          30.4060   23.4470   32.3860 N.am      6 SEP2        0.0000 
     28 N          31.1325   23.9800   36.9035 N.am      2 SEC2        0.0000 
     29 N          30.3520   25.1500   36.8180 N.am     10 SEL2        0.0000 
     30 N          29.3590   25.5285   38.2000 N.am      2 SEC2        0.0000 
     31 N          28.3660   25.9070   39.5820 N.am      6 SEP2        0.0000 
     32 O          29.4975   24.3760   36.3155 O.2       1 ALC1        0.0000 
     33 O          30.3520   25.1500   36.8180 O.2       9 ALL1        0.0000 
     34 O          28.6430   23.6020   35.8130 O.2       5 ALP1        0.0000 
     35 CA         32.3025   28.9350   38.6665 C.3       4 GLC5        0.0000 
     36 CA         31.3180   27.2430   37.7070 C.3      12 GLL5        0.0000 
     37 CA         33.2870   30.6270   39.6260 C.3       8 GLP5        0.0000 
     38 N          28.7155   30.9220   39.8355 N.am      2 SEC2        0.0000 
     39 N          29.5010   30.2800   38.9320 N.am     10 SEL2        0.0000 
     40 N          27.9300   31.5640   40.7390 N.am      6 SEP2        0.0000 
     41 CA         30.9565   32.3415   37.5525 C.3       4 GLC5        0.0000 
     42 CA         29.8150   30.6610   37.5470 C.3      12 GLL5        0.0000 
     43 CA         32.0980   34.0220   37.5580 C.3       8 GLP5        0.0000 
     44 CA         27.9715   31.2730   36.6820 C.3       4 GLC5        0.0000 
     45 CA         26.1280   31.8850   35.8170 C.3       8 GLP5        0.0000 
     46 N          27.8510   33.0115   38.3555 N.am      2 SEC2        0.0000 
     47 N          28.8090   32.9430   37.3430 N.am     10 SEL2        0.0000 
     48 N          26.8930   33.0800   39.3680 N.am      6 SEP2        0.0000 
     49 O          31.9190   30.0415   32.9290 O.2       1 ALC1        0.0000 
     50 O          31.0980   31.0400   33.4570 O.2       9 ALL1        0.0000 
     51 O          32.7400   29.0430   32.4010 O.2       5 ALP1        0.0000 
     52 CA         32.6125   30.1375   36.4520 C.3       4 GLC5        0.0000 
     53 CA         30.5180   29.5910   36.9270 C.3      12 GLL5        0.0000 
     54 CA         34.7070   30.6840   35.9770 C.3       8 GLP5        0.0000 
     55 CA         34.2490   28.6430   36.0765 C.3       4 GLC5        0.0000 
     56 CA         34.6650   26.6380   37.9210 C.3       4 GLC5        0.0000 
     57 CA         35.5390   26.6740   39.6660 C.3       8 GLP5        0.0000 
     58 CA         32.6478   24.3523   36.0040 C.3       4 GLC5        0.0000 
     59 CA         32.7150   22.2030   35.9390 C.3       8 GLP5        0.0000 
     60 CA         31.3352   25.4132   38.4588 C.3       4 GLC5        0.0000 
     61 CA         30.7790   26.4440   36.5020 C.3      12 GLL5        0.0000 
     62 CA         29.1208   27.3308   36.8697 C.3       4 GLC5        0.0000 
     63 CA         27.1930   27.8180   36.6350 C.3       8 GLP5        0.0000 
     64 CA         31.7268   30.3765   38.4315 C.3       4 GLC5        0.0000 
@<TRIPOS>BOND
@<TRIPOS>SUBSTRUCTURE
     1 ALC1       32 GROUP        1 X    ALC  0     ROOT ALC X 1
     2 SEC2        4 GROUP        1 X    SEC  0     **** SEC X 2
     3 LYC4        1 GROUP        1 X    LYC  0     **** LYC X 4
     4 GLC5       14 GROUP        1 X    GLC  0     **** GLC X 6
     5 ALP1       34 GROUP        1 Y    ALP  0     ROOT ALP Y 8
     6 SEP2        6 GROUP        1 Y    SEP  0     **** SEP Y 9
     7 LYP4        3 GROUP        1 Y    LYP  0     **** LYP Y 11
     8 GLP5       16 GROUP        1 Y    GLP  0     **** GLP Y 13
     9 ALL1       33 GROUP        1 Z    ALL  0     ROOT ALL Z 15
    10 SEL2        5 GROUP        1 Z    SEL  0     **** SEL Z 16
    11 LYL4        2 GROUP        1 Z    LYL  0     **** LYL Z 18
    12 GLL5       15 GROUP        1 Z    GLL  0     **** GLL Z 20
@<TRIPOS>SET

