#    Name: 4ku7_PCG_1_ligand
#    Modification time : Tue Mar 25 08:57:52 2014

@<TRIPOS>MOLECULE
4ku7_PCG_1_ligand
   34    37     1     0     0
SMALL
NO_CHARGES


@<TRIPOS>ATOM
      1 PA         33.4840   25.2990   33.8540 P.3       1 PCG425      0.0000 
      2 O1A        33.6080   24.0010   33.1710 O.co2     1 PCG425      0.0000 
      3 O2A        33.5660   26.6390   32.9380 O.co2     1 PCG425      0.0000 
      4 O5'        34.5520   25.4090   34.9500 O.3       1 PCG425      0.0000 
      5 C5'        34.4190   26.6830   35.7950 C.3       1 PCG425      0.0000 
      6 C4'        33.1630   26.5210   36.5570 C.3       1 PCG425      0.0000 
      7 O4'        32.7330   27.5310   37.4930 O.3       1 PCG425      0.0000 
      8 C3'        31.9980   26.4820   35.5810 C.3       1 PCG425      0.0000 
      9 O3'        32.0530   25.3390   34.6740 O.3       1 PCG425      0.0000 
     10 C2'        30.7790   26.4440   36.5020 C.3       1 PCG425      0.0000 
     11 O2'        30.3520   25.1500   36.8180 O.3       1 PCG425      0.0000 
     12 C1'        31.3180   27.2430   37.7070 C.3       1 PCG425      0.0000 
     13 N9         30.6200   28.5140   37.9160 N.pl3     1 PCG425      0.0000 
     14 C8         30.0180   28.9420   39.1670 C.2       1 PCG425      0.0000 
     15 N7         29.5010   30.2800   38.9320 N.2       1 PCG425      0.0000 
     16 C5         29.8150   30.6610   37.5470 C.2       1 PCG425      0.0000 
     17 C6         29.5240   31.9010   36.7500 C.2       1 PCG425      0.0000 
     18 O6         28.8090   32.9430   37.3430 O.2       1 PCG425      0.0000 
     19 N1         29.9380   32.0010   35.4340 N.am      1 PCG425      0.0000 
     20 C2         30.6480   30.9240   34.8330 C.2       1 PCG425      0.0000 
     21 N2         31.0980   31.0400   33.4570 N.pl3     1 PCG425      0.0000 
     22 N3         30.9430   29.6810   35.6210 N.2       1 PCG425      0.0000 
     23 C4         30.5180   29.5910   36.9270 C.2       1 PCG425      0.0000 
     24 H          34.3648   27.5283   35.1381 H         1 PCG425      0.0000 
     25 H          35.2628   26.7501   36.4527 H         1 PCG425      0.0000 
     26 H          33.1393   25.5347   37.0468 H         1 PCG425      0.0000 
     27 H          31.9772   27.4209   35.0588 H         1 PCG425      0.0000 
     28 H          30.0289   27.0685   36.0407 H         1 PCG425      0.0000 
     29 H          31.2164   26.6164   38.5894 H         1 PCG425      0.0000 
     30 H          29.9733   28.4677   39.9427 H         1 PCG425      0.0000 
     31 H          29.7434   32.8381   34.8800 H         1 PCG425      0.0000 
     32 H          31.5602   30.2391   33.0762 H         1 PCG425      0.0000 
     33 H          30.9085   31.9111   33.0040 H         1 PCG425      0.0000 
     34 H          29.6240   24.9504   36.1621 H         1 PCG425      0.0000 
@<TRIPOS>BOND
     1    2    1 ar   
     2    3    1 ar   
     3    4    1 1    
     4    9    1 1    
     5    5    4 1    
     6    6    5 1    
     7   24    5 1    
     8   25    5 1    
     9    7    6 1    
    10    8    6 1    
    11   26    6 1    
    12   12    7 1    
    13    9    8 1    
    14   10    8 1    
    15   27    8 1    
    16   11   10 1    
    17   12   10 1    
    18   28   10 1    
    19   34   11 1    
    20   13   12 1    
    21   29   12 1    
    22   14   13 1    
    23   23   13 1    
    24   15   14 2    
    25   30   14 1    
    26   16   15 1    
    27   17   16 1    
    28   23   16 2    
    29   18   17 2    
    30   19   17 am   
    31   20   19 1    
    32   31   19 1    
    33   21   20 1    
    34   22   20 2    
    35   32   21 1    
    36   33   21 1    
    37   23   22 1    
@<TRIPOS>SUBSTRUCTURE
     1 PCG425      1 GROUP   
@<TRIPOS>SET

