#    Name: 4ce1_7FK_1_INTS_M
#    Modification time : Tue Mar 25 09:14:33 2014

@<TRIPOS>MOLECULE
4ce1_7FK_1_INTS_M
   42     0     6     0     0
SMALL
NO_CHARGES


@<TRIPOS>ATOM
      1 N          21.3155   -1.8225   -5.7000 N.am      1 SEC2        0.0000 
      2 N          19.8830   -1.9180   -6.1750 N.am      5 SEL2        0.0000 
      3 N          22.7480   -1.7270   -5.2250 N.am      3 SEP2        0.0000 
      4 CA         18.2430   -4.5265   -7.7755 C.3       2 GLC5        0.0000 
      5 CA         16.9460   -3.9220   -6.7610 C.3       6 GLL5        0.0000 
      6 CA         19.5400   -5.1310   -8.7900 C.3       4 GLP5        0.0000 
      7 CA         20.8815   -3.1340   -3.9110 C.3       2 GLC5        0.0000 
      8 CA         19.0060   -3.5920   -4.7950 C.3       6 GLL5        0.0000 
      9 CA         22.7570   -2.6760   -3.0270 C.3       4 GLP5        0.0000 
     10 CA         21.6045   -3.7390   -4.5850 C.3       2 GLC5        0.0000 
     11 CA         19.9400   -4.6660   -4.7570 C.3       6 GLL5        0.0000 
     12 CA         23.2690   -2.8120   -4.4130 C.3       4 GLP5        0.0000 
     13 CA         17.0975   -3.9220    0.3120 C.3       2 GLC5        0.0000 
     14 CA         17.3230   -3.9730   -1.2430 C.3       6 GLL5        0.0000 
     15 CA         16.8720   -3.8710    1.8670 C.3       4 GLP5        0.0000 
     16 CA         15.4365   -0.7060   -1.3755 C.3       2 GLC5        0.0000 
     17 CA         14.7950   -1.7110   -2.7250 C.3       6 GLL5        0.0000 
     18 CA         16.0780    0.2990   -0.0260 C.3       4 GLP5        0.0000 
     19 CA         13.4395    0.7905   -3.5130 C.3       2 GLC5        0.0000 
     20 CA         12.5790   -1.1470   -3.6910 C.3       6 GLL5        0.0000 
     21 CA         14.3000    2.7280   -3.3350 C.3       4 GLP5        0.0000 
     22 CA         18.6440   -3.5075   -8.3775 C.3       2 GLC5        0.0000 
     23 CA         17.7480   -1.8840   -7.9650 C.3       6 GLL5        0.0000 
     24 CA         19.5065   -4.6300   -6.7830 C.3       2 GLC5        0.0000 
     25 CA         19.9008   -7.0085   -5.1315 C.3       2 GLC5        0.0000 
     26 CA         19.8320   -8.9250   -6.0500 C.3       4 GLP5        0.0000 
     27 CA         18.0427   -6.4620   -3.3063 C.3       2 GLC5        0.0000 
     28 CA         19.9990   -5.5180   -3.6690 C.3       6 GLL5        0.0000 
     29 CA         16.5110   -7.5080   -3.4800 C.3       4 GLP5        0.0000 
     30 CA         21.1657   -4.0460   -3.0797 C.3       2 GLC5        0.0000 
     31 CA         19.1500   -5.3140   -2.5960 C.3       6 GLL5        0.0000 
     32 CA         20.5158   -4.8945   -1.4678 C.3       2 GLC5        0.0000 
     33 CA         21.4570   -4.3730    0.1970 C.3       4 GLP5        0.0000 
     34 CA         19.6238   -4.2348   -0.8753 C.3       2 GLC5        0.0000 
     35 CA         18.2580   -4.2200   -2.6520 C.3       6 GLL5        0.0000 
     36 CA         17.2341   -5.6146   -3.1579 C.3       2 GLC5        0.0000 
     37 CA         18.7322   -1.3287   -3.7501 C.3       2 GLC5        0.0000 
     38 CA         19.6240    0.1820   -3.4930 C.3       4 GLP5        0.0000 
     39 CA         18.2370   -1.3845   -9.4465 C.3       2 GLC5        0.0000 
     40 CA         19.1730   -1.4900  -11.0760 C.3       4 GLP5        0.0000 
     41 CA         18.1385    0.1780   -6.7600 C.3       2 GLC5        0.0000 
     42 CA         18.9760    1.6350   -5.7030 C.3       4 GLP5        0.0000 
@<TRIPOS>BOND
@<TRIPOS>SUBSTRUCTURE
     1 SEC2        1 GROUP        1 X    SEC  0     ROOT SEC X 2
     2 GLC5        4 GROUP        1 X    GLC  0     **** GLC X 6
     3 SEP2        3 GROUP        1 Y    SEP  0     ROOT SEP Y 9
     4 GLP5        6 GROUP        1 Y    GLP  0     **** GLP Y 13
     5 SEL2        2 GROUP        1 Z    SEL  0     ROOT SEL Z 16
     6 GLL5        5 GROUP        1 Z    GLL  0     **** GLL Z 20
@<TRIPOS>SET

