#    Name: 4ce1_7FK_1_ligand
#    Modification time : Tue Mar 25 09:14:33 2014

@<TRIPOS>MOLECULE
4ce1_7FK_1_ligand
   51    52     1     0     0
SMALL
NO_CHARGES


@<TRIPOS>ATOM
      1 O3         19.8830   -1.9180   -6.1750 O.2       1 7FK1215     0.0000 
      2 C19        18.9630   -2.7070   -6.0140 C.2       1 7FK1215     0.0000 
      3 N          17.9460   -2.8520   -6.8860 N.am      1 7FK1215     0.0000 
      4 C          16.9460   -3.9220   -6.7610 C.3       1 7FK1215     0.0000 
      5 C18        19.0060   -3.5920   -4.7950 C.ar      1 7FK1215     0.0000 
      6 C17        19.9400   -4.6660   -4.7570 C.ar      1 7FK1215     0.0000 
      7 O2         20.7510   -4.8690   -5.7990 O.co2     1 7FK1215     0.0000 
      8 C16        19.9990   -5.5180   -3.6690 C.ar      1 7FK1215     0.0000 
      9 C15        19.1500   -5.3140   -2.5960 C.ar      1 7FK1215     0.0000 
     10 O1         19.1190   -6.1560   -1.5350 O.3       1 7FK1215     0.0000 
     11 C14        18.2580   -4.2200   -2.6520 C.ar      1 7FK1215     0.0000 
     12 CL         17.3230   -3.9730   -1.2430 Cl        1 7FK1215     0.0000 
     13 C13        18.1240   -3.3460   -3.7240 C.ar      1 7FK1215     0.0000 
     14 C12        17.1160   -2.2100   -3.7550 C.3       1 7FK1215     0.0000 
     15 C11        15.6760   -2.6260   -3.5330 C.2       1 7FK1215     0.0000 
     16 O          15.2630   -3.6740   -3.9720 O.2       1 7FK1215     0.0000 
     17 C10        14.7950   -1.7110   -2.7250 C.3       1 7FK1215     0.0000 
     18 C9         13.3100   -2.0370   -2.7370 C.3       1 7FK1215     0.0000 
     19 C8         12.5790   -1.1470   -3.6910 C.3       1 7FK1215     0.0000 
     20 C7         12.9500   -1.4330   -5.1370 C.3       1 7FK1215     0.0000 
     21 C6         12.4950   -0.4060   -6.1570 C.3       1 7FK1215     0.0000 
     22 C5         12.8930   -0.8180   -7.5780 C.3       1 7FK1215     0.0000 
     23 C4         14.3220   -0.4340   -7.8830 C.2       1 7FK1215     0.0000 
     24 C3         15.4070   -1.0410   -7.4100 C.2       1 7FK1215     0.0000 
     25 C2         16.8540   -0.6740   -7.6690 C.3       1 7FK1215     0.0000 
     26 C1         17.7480   -1.8840   -7.9650 C.3       1 7FK1215     0.0000 
     27 H          20.6688   -6.2972   -3.6577 H         1 7FK1215     0.0000 
     28 H          17.1940   -1.6897   -4.7315 H         1 7FK1215     0.0000 
     29 H          17.3972   -1.4617   -2.9860 H         1 7FK1215     0.0000 
     30 H          14.9298   -0.6649   -3.0845 H         1 7FK1215     0.0000 
     31 H          15.1471   -1.7068   -1.6678 H         1 7FK1215     0.0000 
     32 H          12.9107   -1.9088   -1.7277 H         1 7FK1215     0.0000 
     33 H          13.1789   -3.0824   -3.0280 H         1 7FK1215     0.0000 
     34 H          12.8076   -0.0959   -3.4682 H         1 7FK1215     0.0000 
     35 H          11.4957   -1.2827   -3.5701 H         1 7FK1215     0.0000 
     36 H          12.5368   -2.4274   -5.4210 H         1 7FK1215     0.0000 
     37 H          14.0562   -1.5412   -5.2064 H         1 7FK1215     0.0000 
     38 H          12.9476    0.5607   -5.9285 H         1 7FK1215     0.0000 
     39 H          11.4096   -0.3006   -6.1096 H         1 7FK1215     0.0000 
     40 H          12.2213   -0.3297   -8.2879 H         1 7FK1215     0.0000 
     41 H          12.7732   -1.8993   -7.6783 H         1 7FK1215     0.0000 
     42 H          14.3928    0.4003   -8.5373 H         1 7FK1215     0.0000 
     43 H          15.3194   -1.8958   -6.7646 H         1 7FK1215     0.0000 
     44 H          17.2585   -0.1435   -6.7929 H         1 7FK1215     0.0000 
     45 H          16.9074    0.0201   -8.5221 H         1 7FK1215     0.0000 
     46 H          17.3253   -2.3983   -8.8708 H         1 7FK1215     0.0000 
     47 H          18.7406   -1.4887   -8.3145 H         1 7FK1215     0.0000 
     48 H          17.3650   -4.8289   -6.8047 H         1 7FK1215     0.0000 
     49 H          16.4518   -3.8690   -5.8933 H         1 7FK1215     0.0000 
     50 H          16.2631   -3.8792   -7.4903 H         1 7FK1215     0.0000 
     51 H          19.8058   -6.8538   -1.7384 H         1 7FK1215     0.0000 
@<TRIPOS>BOND
     1    2    1 2    
     2    3    2 am   
     3    5    2 1    
     4    4    3 1    
     5   26    3 1    
     6   48    4 1    
     7   49    4 1    
     8   50    4 1    
     9    6    5 ar   
    10   13    5 ar   
    11    7    6 1    
    12    8    6 ar   
    13    9    8 ar   
    14   27    8 1    
    15   10    9 1    
    16   11    9 ar   
    17   51   10 1    
    18   12   11 1    
    19   13   11 ar   
    20   14   13 1    
    21   15   14 1    
    22   28   14 1    
    23   29   14 1    
    24   16   15 2    
    25   17   15 1    
    26   18   17 1    
    27   30   17 1    
    28   31   17 1    
    29   19   18 1    
    30   32   18 1    
    31   33   18 1    
    32   20   19 1    
    33   34   19 1    
    34   35   19 1    
    35   21   20 1    
    36   36   20 1    
    37   37   20 1    
    38   22   21 1    
    39   38   21 1    
    40   39   21 1    
    41   23   22 1    
    42   40   22 1    
    43   41   22 1    
    44   24   23 2    
    45   42   23 1    
    46   25   24 1    
    47   43   24 1    
    48   26   25 1    
    49   44   25 1    
    50   45   25 1    
    51   46   26 1    
    52   47   26 1    
@<TRIPOS>SUBSTRUCTURE
     1 7FK1215     1 GROUP   
@<TRIPOS>SET

