#    Name: 3fr4_F8A_1_INTS_M
#    Modification time : Tue Mar 25 06:18:12 2014

@<TRIPOS>MOLECULE
3fr4_F8A_1_INTS_M
   67     0     9     0     0
SMALL
NO_CHARGES


@<TRIPOS>ATOM
      1 CA         19.4630    3.9340   -5.6820 C.3       3 GLC5        0.0000 
      2 CA         20.3950    4.6200   -4.4170 C.3       9 GLL5        0.0000 
      3 CA         18.5310    3.2480   -6.9470 C.3       6 GLP5        0.0000 
      4 CA         22.6320    5.8705   -3.7475 C.3       3 GLC5        0.0000 
      5 CA         20.7030    4.9190   -3.1670 C.3       9 GLL5        0.0000 
      6 CA         24.5610    6.8220   -4.3280 C.3       6 GLP5        0.0000 
      7 CA         23.5135    5.7475   -3.0535 C.3       3 GLC5        0.0000 
      8 CA         21.9640    5.2030   -3.0900 C.3       9 GLL5        0.0000 
      9 CA         25.0630    6.2920   -3.0170 C.3       6 GLP5        0.0000 
     10 CA         18.1760    3.7635   -3.3680 C.3       3 GLC5        0.0000 
     11 CA         19.9760    2.5550   -2.8580 C.3       9 GLL5        0.0000 
     12 CA         16.3760    4.9720   -3.8780 C.3       6 GLP5        0.0000 
     13 CA         19.2535    2.9015   -4.9025 C.3       3 GLC5        0.0000 
     14 CA         21.7810    6.6375    0.7200 C.3       3 GLC5        0.0000 
     15 CA         20.9260    5.1790   -0.2250 C.3       9 GLL5        0.0000 
     16 CA         22.6360    8.0960    1.6650 C.3       6 GLP5        0.0000 
     17 CA         23.2270    6.1085    1.0625 C.3       3 GLC5        0.0000 
     18 CA         23.8180    4.1210    0.4600 C.3       9 GLL5        0.0000 
     19 CA         24.4405    5.2065   -1.2785 C.3       3 GLC5        0.0000 
     20 CA         25.8925    6.3770    2.1830 C.3       3 GLC5        0.0000 
     21 CA         25.2600    4.3070    2.5090 C.3       9 GLL5        0.0000 
     22 CA         26.5250    8.4470    1.8570 C.3       6 GLP5        0.0000 
     23 CA         27.2835    4.7290    2.5940 C.3       3 GLC5        0.0000 
     24 CA         29.3070    5.1510    2.6790 C.3       6 GLP5        0.0000 
     25 CA         24.1785    5.8855    4.9055 C.3       3 GLC5        0.0000 
     26 CA         24.1770    4.1370    3.5630 C.3       9 GLL5        0.0000 
     27 CA         24.1800    7.6340    6.2480 C.3       6 GLP5        0.0000 
     28 CA         17.4785    7.0365    5.0550 C.3       3 GLC5        0.0000 
     29 CA         19.0280    6.0820    3.8130 C.3       9 GLL5        0.0000 
     30 CA         15.9290    7.9910    6.2970 C.3       6 GLP5        0.0000 
     31 CA         19.0020    8.2480    3.2600 C.3       3 GLC5        0.0000 
     32 CA         18.9760   10.4140    2.7070 C.3       6 GLP5        0.0000 
     33 NZ         18.1860    7.9265    0.5610 N.4       2 LYC4        0.0000 
     34 NZ         17.7130    7.3010    1.6220 N.4       8 LYL4        0.0000 
     35 NZ         19.0030    9.5230    0.3550 N.4       5 LYP4        0.0000 
     36 N          18.1875    8.3680    1.6360 N.am      1 SEC2        0.0000 
     37 N          17.7130    7.3010    1.6220 N.am      7 SEL2        0.0000 
     38 N          18.6620    9.4350    1.6500 N.am      4 SEP2        0.0000 
     39 N          18.1860    7.9265    0.5610 N.am      1 SEC2        0.0000 
     40 N          18.6590    8.5520   -0.5000 N.am      4 SEP2        0.0000 
     41 N          16.7165    7.1705    0.8735 N.am      1 SEC2        0.0000 
     42 N          15.7200    7.0400    0.1250 N.am      4 SEP2        0.0000 
     43 N          18.2660    7.0130   -0.0165 N.am      1 SEC2        0.0000 
     44 N          17.8730    5.4740    0.4670 N.am      7 SEL2        0.0000 
     45 CA         22.2227    4.0386   -4.2310 C.3       3 GLC5        0.0000 
     46 CA         23.1890    3.0910   -5.0210 C.3       6 GLP5        0.0000 
     47 CA         20.7104    6.1793   -4.6865 C.3       3 GLC5        0.0000 
     48 CA         20.7950    6.8880   -6.2640 C.3       6 GLP5        0.0000 
     49 CA         18.6043    5.3756   -2.9726 C.3       3 GLC5        0.0000 
     50 CA         16.8720    6.1950   -3.1590 C.3       6 GLP5        0.0000 
     51 CA         20.2560   -0.4342   -1.0427 C.3       3 GLC5        0.0000 
     52 CA         19.7740    1.5780   -0.6120 C.3       9 GLL5        0.0000 
     53 CA         20.7840   -2.4000   -0.7710 C.3       6 GLP5        0.0000 
     54 CA         18.0580    1.6026   -0.8121 C.3       3 GLC5        0.0000 
     55 CA         19.6820    1.4850   -2.0170 C.3       9 GLL5        0.0000 
     56 CA         16.1700    1.0540   -0.9670 C.3       6 GLP5        0.0000 
     57 CA         21.7625    1.3091   -0.5631 C.3       3 GLC5        0.0000 
     58 CA         23.5790    0.4670   -0.4690 C.3       6 GLP5        0.0000 
     59 CA         23.9653    2.1250    0.2067 C.3       3 GLC5        0.0000 
     60 CA         26.6883    2.7105    1.6530 C.3       3 GLC5        0.0000 
     61 CA         24.8850    3.4450    1.3050 C.3       9 GLL5        0.0000 
     62 CA         28.3040    1.5450    1.3990 C.3       6 GLP5        0.0000 
     63 CA         20.5053    4.7220    6.4878 C.3       3 GLC5        0.0000 
     64 CA         21.1880    5.3230    4.7020 C.3       9 GLL5        0.0000 
     65 CA         20.4730    3.8780    8.1900 C.3       6 GLP5        0.0000 
     66 CA         19.7334    7.3455    5.4421 C.3       3 GLC5        0.0000 
     67 CA         19.6840    8.8670    6.5850 C.3       6 GLP5        0.0000 
@<TRIPOS>BOND
@<TRIPOS>SUBSTRUCTURE
     1 SEC2       36 GROUP        1 X    SEC  0     ROOT SEC X 2
     2 LYC4       33 GROUP        1 X    LYC  0     **** LYC X 4
     3 GLC5        1 GROUP        1 X    GLC  0     **** GLC X 6
     4 SEP2       38 GROUP        1 Y    SEP  0     ROOT SEP Y 9
     5 LYP4       35 GROUP        1 Y    LYP  0     **** LYP Y 11
     6 GLP5        3 GROUP        1 Y    GLP  0     **** GLP Y 13
     7 SEL2       37 GROUP        1 Z    SEL  0     ROOT SEL Z 16
     8 LYL4       34 GROUP        1 Z    LYL  0     **** LYL Z 18
     9 GLL5        2 GROUP        1 Z    GLL  0     **** GLL Z 20
@<TRIPOS>SET

