#    Name: 3fr4_F8A_1_ligand
#    Modification time : Tue Mar 25 06:18:12 2014

@<TRIPOS>MOLECULE
3fr4_F8A_1_ligand
   44    47     1     0     0
SMALL
NO_CHARGES


@<TRIPOS>ATOM
      1 F27        20.3950    4.6200   -4.4170 F         1 F8A501      0.0000 
      2 C24        20.7030    4.9190   -3.1670 C.3       1 F8A501      0.0000 
      3 F25        21.9640    5.2030   -3.0900 F         1 F8A501      0.0000 
      4 F26        19.9950    5.9550   -2.7770 F         1 F8A501      0.0000 
      5 C19        20.4010    3.7500   -2.2880 C.ar      1 F8A501      0.0000 
      6 C20        19.9760    2.5550   -2.8580 C.ar      1 F8A501      0.0000 
      7 C21        19.6820    1.4850   -2.0170 C.ar      1 F8A501      0.0000 
      8 C22        19.7740    1.5780   -0.6120 C.ar      1 F8A501      0.0000 
      9 C23        20.1640    2.7710    0.0000 C.ar      1 F8A501      0.0000 
     10 C18        20.4800    3.8660   -0.8070 C.ar      1 F8A501      0.0000 
     11 C17        20.9260    5.1790   -0.2250 C.3       1 F8A501      0.0000 
     12 N9         21.4570    5.0260    1.1210 N.pl3     1 F8A501      0.0000 
     13 C8         22.7140    4.5740    1.3980 C.2       1 F8A501      0.0000 
     14 C16        23.8180    4.1210    0.4600 C.3       1 F8A501      0.0000 
     15 C15        24.8850    3.4450    1.3050 C.3       1 F8A501      0.0000 
     16 C14        25.2600    4.3070    2.5090 C.3       1 F8A501      0.0000 
     17 C13        24.1770    4.1370    3.5630 C.3       1 F8A501      0.0000 
     18 C7         22.9100    4.5650    2.8620 C.2       1 F8A501      0.0000 
     19 C1         20.7670    5.3270    2.2600 C.ar      1 F8A501      0.0000 
     20 C6         21.6440    5.0790    3.4170 C.ar      1 F8A501      0.0000 
     21 C5         21.1880    5.3230    4.7020 C.ar      1 F8A501      0.0000 
     22 C4         19.8870    5.8090    4.8690 C.ar      1 F8A501      0.0000 
     23 C3         19.0280    6.0820    3.8130 C.ar      1 F8A501      0.0000 
     24 C2         19.3660    5.8490    2.4760 C.ar      1 F8A501      0.0000 
     25 C10        18.2880    6.2340    1.4770 C.2       1 F8A501      0.0000 
     26 O12        17.7130    7.3010    1.6220 O.co2     1 F8A501      0.0000 
     27 O11        17.8730    5.4740    0.4670 O.co2     1 F8A501      0.0000 
     28 H          19.8817    2.4637   -3.8671 H         1 F8A501      0.0000 
     29 H          19.3820    0.5778   -2.4332 H         1 F8A501      0.0000 
     30 H          19.5499    0.7540   -0.0377 H         1 F8A501      0.0000 
     31 H          20.2169    2.8411    1.0132 H         1 F8A501      0.0000 
     32 H          20.0666    5.8729   -0.2248 H         1 F8A501      0.0000 
     33 H          21.6878    5.6185   -0.8933 H         1 F8A501      0.0000 
     34 H          24.2412    4.9749   -0.0411 H         1 F8A501      0.0000 
     35 H          23.4224    3.4177   -0.2529 H         1 F8A501      0.0000 
     36 H          25.7745    3.2739    0.6974 H         1 F8A501      0.0000 
     37 H          24.5128    2.4821    1.6572 H         1 F8A501      0.0000 
     38 H          25.3140    5.3401    2.2072 H         1 F8A501      0.0000 
     39 H          26.2067    3.9775    2.9046 H         1 F8A501      0.0000 
     40 H          24.3748    4.7803    4.3876 H         1 F8A501      0.0000 
     41 H          24.1106    3.1134    3.8474 H         1 F8A501      0.0000 
     42 H          21.7818    5.1544    5.5112 H         1 F8A501      0.0000 
     43 H          19.5446    5.9754    5.8503 H         1 F8A501      0.0000 
     44 H          18.0814    6.4813    4.0230 H         1 F8A501      0.0000 
@<TRIPOS>BOND
     1    2    1 1    
     2    3    2 1    
     3    4    2 1    
     4    5    2 1    
     5    6    5 ar   
     6   10    5 ar   
     7    7    6 ar   
     8   28    6 1    
     9    8    7 ar   
    10   29    7 1    
    11    9    8 ar   
    12   30    8 1    
    13   10    9 ar   
    14   31    9 1    
    15   11   10 1    
    16   12   11 1    
    17   32   11 1    
    18   33   11 1    
    19   13   12 1    
    20   19   12 1    
    21   14   13 1    
    22   18   13 2    
    23   15   14 1    
    24   34   14 1    
    25   35   14 1    
    26   16   15 1    
    27   36   15 1    
    28   37   15 1    
    29   17   16 1    
    30   38   16 1    
    31   39   16 1    
    32   18   17 1    
    33   40   17 1    
    34   41   17 1    
    35   20   18 1    
    36   20   19 ar   
    37   24   19 ar   
    38   21   20 ar   
    39   22   21 ar   
    40   42   21 1    
    41   23   22 ar   
    42   43   22 1    
    43   24   23 ar   
    44   44   23 1    
    45   25   24 1    
    46   26   25 ar   
    47   27   25 ar   
@<TRIPOS>SUBSTRUCTURE
     1 F8A501      1 GROUP   
@<TRIPOS>SET

