#    Name: 3qfa_FAD_1_INTS_M
#    Modification time : Mon Apr  7 19:27:15 2014

@<TRIPOS>MOLECULE
3qfa_FAD_1_INTS_M
  129     0     9     0     0
SMALL
NO_CHARGES


@<TRIPOS>ATOM
      1 N          93.2275   19.8485  -74.7120 N.am      2 SEC2        0.0000 
      2 N          94.3900   20.4710  -75.6640 N.am      8 SEL2        0.0000 
      3 N          92.0650   19.2260  -73.7600 N.am      5 SEP2        0.0000 
      4 N          94.5560   22.1435  -75.7720 N.am      2 SEC2        0.0000 
      5 N          94.7220   23.8160  -75.8800 N.am      5 SEP2        0.0000 
      6 N          96.8480   22.1435  -77.1830 N.am      2 SEC2        0.0000 
      7 N          96.7760   20.8640  -76.5900 N.am      8 SEL2        0.0000 
      8 N          96.9200   23.4230  -77.7760 N.am      5 SEP2        0.0000 
      9 N          97.2880   20.6020  -77.7485 N.am      2 SEC2        0.0000 
     10 N          97.8000   20.3400  -78.9070 N.am      5 SEP2        0.0000 
     11 CA         98.4990   19.1085  -75.1525 C.3       3 GLC5        0.0000 
     12 CA         97.6190   20.0060  -73.6560 C.3       9 GLL5        0.0000 
     13 CA         99.3790   18.2110  -76.6490 C.3       6 GLP5        0.0000 
     14 CA         97.9055   19.5270  -70.7785 C.3       3 GLC5        0.0000 
     15 CA         97.6800   20.7610  -72.3390 C.3       9 GLL5        0.0000 
     16 CA         98.1310   18.2930  -69.2180 C.3       6 GLP5        0.0000 
     17 CA         96.0635   22.9250  -73.0000 C.3       3 GLC5        0.0000 
     18 CA         97.9890   22.2740  -72.4500 C.3       9 GLL5        0.0000 
     19 CA         94.1380   23.5760  -73.5500 C.3       6 GLP5        0.0000 
     20 N          96.2905   24.2090  -71.3350 N.am      2 SEC2        0.0000 
     21 N          97.2450   23.0830  -71.5530 N.am      8 SEL2        0.0000 
     22 N          95.3360   25.3350  -71.1170 N.am      5 SEP2        0.0000 
     23 O          97.1845   22.6725  -70.3320 O.2       1 ALC1        0.0000 
     24 O          97.2450   23.0830  -71.5530 O.2       7 ALL1        0.0000 
     25 O          97.1240   22.2620  -69.1110 O.2       4 ALP1        0.0000 
     26 O         100.5860   23.9180  -70.7410 O.2       1 ALC1        0.0000 
     27 O         100.0470   23.5630  -71.9050 O.2       7 ALL1        0.0000 
     28 O         101.1250   24.2730  -69.5770 O.2       4 ALP1        0.0000 
     29 CA         98.8660   19.7860  -70.1590 C.3       3 GLC5        0.0000 
     30 CA         99.6010   21.2790  -71.1000 C.3       9 GLL5        0.0000 
     31 CA        100.0035   19.3510  -72.0880 C.3       3 GLC5        0.0000 
     32 CA        100.4060   17.4230  -73.0760 C.3       6 GLP5        0.0000 
     33 CA        103.9945   20.7365  -66.9440 C.3       3 GLC5        0.0000 
     34 CA        103.4690   19.5340  -68.6730 C.3       9 GLL5        0.0000 
     35 CA        104.5200   21.9390  -65.2150 C.3       6 GLP5        0.0000 
     36 O         105.2495   18.3350  -67.6230 O.2       1 ALC1        0.0000 
     37 O         104.7020   19.0280  -68.7760 O.2       7 ALL1        0.0000 
     38 O         105.7970   17.6420  -66.4700 O.2       4 ALP1        0.0000 
     39 N         103.5960   19.6130  -66.2310 N.am      2 SEC2        0.0000 
     40 N         102.8980   19.6940  -67.4440 N.am      8 SEL2        0.0000 
     41 N         104.2940   19.5320  -65.0180 N.am      5 SEP2        0.0000 
     42 CA        101.9475   18.2455  -67.5675 C.3       3 GLC5        0.0000 
     43 CA        101.6310   20.2130  -67.3650 C.3       9 GLL5        0.0000 
     44 CA        102.2640   16.2780  -67.7700 C.3       6 GLP5        0.0000 
     45 CA         99.8810   19.2530  -68.2915 C.3       3 GLC5        0.0000 
     46 CA        100.8285   19.3600  -65.5410 C.3       3 GLC5        0.0000 
     47 CA        100.0260   18.5070  -63.7170 C.3       6 GLP5        0.0000 
     48 CA         99.9660   21.1030  -66.8545 C.3       3 GLC5        0.0000 
     49 CA         98.3010   21.9930  -66.3440 C.3       6 GLP5        0.0000 
     50 CA        101.9080   22.2980  -67.0130 C.3       3 GLC5        0.0000 
     51 CA        102.1850   24.3830  -66.6610 C.3       6 GLP5        0.0000 
     52 CA        103.0755   21.0760  -66.2900 C.3       3 GLC5        0.0000 
     53 N         100.3990   22.0545  -67.7910 N.am      2 SEC2        0.0000 
     54 N         100.8320   20.6070  -68.3710 N.am      8 SEL2        0.0000 
     55 N          99.9660   23.5020  -67.2110 N.am      5 SEP2        0.0000 
     56 CA         99.7970   19.3580  -69.4175 C.3       3 GLC5        0.0000 
     57 CA        101.4630   20.4230  -69.6170 C.3       9 GLL5        0.0000 
     58 N          89.4080   18.4045  -82.3885 N.am      2 SEC2        0.0000 
     59 N          88.6680   19.2420  -83.5330 N.am      8 SEL2        0.0000 
     60 N          90.1480   17.5670  -81.2440 N.am      5 SEP2        0.0000 
     61 O          87.0920   21.3605  -84.5165 O.2       1 ALC1        0.0000 
     62 O          88.5290   21.3490  -84.4300 O.2       7 ALL1        0.0000 
     63 O          85.6550   21.3720  -84.6030 O.2       4 ALP1        0.0000 
     64 N          88.0640   24.6395  -85.9560 N.am      2 SEC2        0.0000 
     65 N          88.3140   23.4470  -85.3490 N.am      8 SEL2        0.0000 
     66 N          87.8140   25.8320  -86.5630 N.am      5 SEP2        0.0000 
     67 CA         90.5650   24.9525  -83.2395 C.3       3 GLC5        0.0000 
     68 CA         92.2530   24.3630  -84.2560 C.3       9 GLL5        0.0000 
     69 CA         88.8770   25.5420  -82.2230 C.3       6 GLP5        0.0000 
     70 CA         96.0660   28.4405  -84.3340 C.3       3 GLC5        0.0000 
     71 CA         94.6940   27.3290  -84.5040 C.3       9 GLL5        0.0000 
     72 CA         97.4380   29.5520  -84.1640 C.3       6 GLP5        0.0000 
     73 CA         94.3535   28.9920  -83.6750 C.3       3 GLC5        0.0000 
     74 CA         94.0130   30.6550  -82.8460 C.3       6 GLP5        0.0000 
     75 CA         95.5970   27.4480  -86.0770 C.3       3 GLC5        0.0000 
     76 CA         96.5000   27.5670  -87.6500 C.3       6 GLP5        0.0000 
     77 CA         97.8125   23.8435  -83.4710 C.3       3 GLC5        0.0000 
     78 CA         96.3690   25.2220  -83.0480 C.3       9 GLL5        0.0000 
     79 CA         99.2560   22.4650  -83.8940 C.3       6 GLP5        0.0000 
     80 CA         91.6200   21.8160  -79.7820 C.3       3 GLC5        0.0000 
     81 CA         92.7410   20.7380  -81.1240 C.3       9 GLL5        0.0000 
     82 CA         90.4990   22.8940  -78.4400 C.3       6 GLP5        0.0000 
     83 CA         90.9050   21.7575  -81.1570 C.3       3 GLC5        0.0000 
     84 CA         89.0690   22.7770  -81.1900 C.3       6 GLP5        0.0000 
     85 CA         90.8805   19.8960  -80.3795 C.3       3 GLC5        0.0000 
     86 CA         89.0200   19.0540  -79.6350 C.3       6 GLP5        0.0000 
     87 O          94.4865   17.5350  -81.2075 O.2       1 ALC1        0.0000 
     88 O          93.4490   18.4450  -81.3000 O.2       7 ALL1        0.0000 
     89 O          95.5240   16.6250  -81.1150 O.2       4 ALP1        0.0000 
     90 O          95.0285   18.4805  -81.0210 O.2       1 ALC1        0.0000 
     91 O          96.6080   18.5160  -80.7420 O.2       4 ALP1        0.0000 
     92 CA         95.9930   17.3460  -79.4780 C.3       3 GLC5        0.0000 
     93 CA         94.1960   18.1880  -78.5660 C.3       9 GLL5        0.0000 
     94 CA         97.7900   16.5040  -80.3900 C.3       6 GLP5        0.0000 
     95 CA         93.0110   16.4210  -77.8675 C.3       3 GLC5        0.0000 
     96 CA         91.8260   14.6540  -77.1690 C.3       6 GLP5        0.0000 
     97 N          93.0820   16.6050  -74.4510 N.am      2 SEC2        0.0000 
     98 N          94.3640   16.9210  -74.9970 N.am      8 SEL2        0.0000 
     99 N          91.8000   16.2890  -73.9050 N.am      5 SEP2        0.0000 
    100 N          96.2730   15.4800  -78.0425 N.am      2 SEC2        0.0000 
    101 N          95.8700   16.2510  -76.9180 N.am      8 SEL2        0.0000 
    102 N          96.6760   14.7090  -79.1670 N.am      5 SEP2        0.0000 
    103 CA         95.6628   20.2597  -72.5987 C.3       3 GLC5        0.0000 
    104 CA         93.6760   20.1360  -72.2000 C.3       6 GLP5        0.0000 
    105 CA         99.0277   18.9032  -73.0367 C.3       3 GLC5        0.0000 
    106 CA        102.6753   18.0032  -68.5117 C.3       3 GLC5        0.0000 
    107 CA        102.7040   19.9230  -69.8340 C.3       9 GLL5        0.0000 
    108 CA        102.2339   18.3499  -70.4666 C.3       3 GLC5        0.0000 
    109 CA        102.1930   16.6240  -71.4980 C.3       6 GLP5        0.0000 
    110 CA         90.7850   25.8240  -85.3605 C.3       3 GLC5        0.0000 
    111 CA         92.8470   25.6370  -84.5360 C.3       9 GLL5        0.0000 
    112 CA         89.0200   26.6480  -86.3250 C.3       6 GLP5        0.0000 
    113 CA         94.6582   25.4772  -85.8820 C.3       3 GLC5        0.0000 
    114 CA         95.8170   25.1680  -87.4140 C.3       6 GLP5        0.0000 
    115 CA         93.4025   26.6487  -82.8040 C.3       3 GLC5        0.0000 
    116 CA         94.1520   25.9360  -84.1640 C.3       9 GLL5        0.0000 
    117 CA         92.3820   26.6650  -81.2740 C.3       6 GLP5        0.0000 
    118 CA         95.7360   25.1315  -85.3407 C.3       3 GLC5        0.0000 
    119 CA         94.9410   24.9680  -83.4870 C.3       9 GLL5        0.0000 
    120 CA         95.2703   24.3135  -81.3994 C.3       3 GLC5        0.0000 
    121 CA         95.5320   24.2430  -79.5680 C.3       6 GLP5        0.0000 
    122 CA         91.5335   18.5590  -79.8323 C.3       3 GLC5        0.0000 
    123 CA         93.6130   19.6340  -80.5180 C.3       9 GLL5        0.0000 
    124 CA         89.6340   17.6590  -79.8830 C.3       6 GLP5        0.0000 
    125 CA         92.2527   18.6280  -77.2627 C.3       3 GLC5        0.0000 
    126 CA         93.2530   19.2840  -79.0450 C.3       9 GLL5        0.0000 
    127 CA         90.7810   18.5200  -75.7200 C.3       6 GLP5        0.0000 
    128 CA         93.0533   25.4560  -82.4666 C.3       3 GLC5        0.0000 
    129 CA         93.0450   23.3470  -83.5600 C.3       9 GLL5        0.0000 
@<TRIPOS>BOND
@<TRIPOS>SUBSTRUCTURE
     1 ALC1       23 GROUP        1 X    ALC  0     ROOT ALC X 1
     2 SEC2        1 GROUP        1 X    SEC  0     **** SEC X 2
     3 GLC5       11 GROUP        1 X    GLC  0     **** GLC X 6
     4 ALP1       25 GROUP        1 Y    ALP  0     ROOT ALP Y 8
     5 SEP2        3 GROUP        1 Y    SEP  0     **** SEP Y 9
     6 GLP5       13 GROUP        1 Y    GLP  0     **** GLP Y 13
     7 ALL1       24 GROUP        1 Z    ALL  0     ROOT ALL Z 15
     8 SEL2        2 GROUP        1 Z    SEL  0     **** SEL Z 16
     9 GLL5       12 GROUP        1 Z    GLL  0     **** GLL Z 20
@<TRIPOS>SET

