#    Name: 3qfa_FAD_1_ligand
#    Modification time : Mon Apr  7 19:27:15 2014

@<TRIPOS>MOLECULE
3qfa_FAD_1_ligand
   84    89     1     0     0
SMALL
NO_CHARGES


@<TRIPOS>ATOM
      1 PA         95.8510   20.1210  -75.6770 P.3       1 FAD600      0.0000 
      2 O1A        94.3900   20.4710  -75.6640 O.co2     1 FAD600      0.0000 
      3 O2A        96.7760   20.8640  -76.5900 O.co2     1 FAD600      0.0000 
      4 O5B        96.3030   20.2450  -74.1620 O.3       1 FAD600      0.0000 
      5 C5B        97.6190   20.0060  -73.6560 C.3       1 FAD600      0.0000 
      6 C4B        97.6800   20.7610  -72.3390 C.3       1 FAD600      0.0000 
      7 O4B        98.7400   20.2040  -71.5060 O.3       1 FAD600      0.0000 
      8 C3B        97.9890   22.2740  -72.4500 C.3       1 FAD600      0.0000 
      9 O3B        97.2450   23.0830  -71.5530 O.3       1 FAD600      0.0000 
     10 C2B        99.4820   22.3130  -72.2000 C.3       1 FAD600      0.0000 
     11 O2B       100.0470   23.5630  -71.9050 O.3       1 FAD600      0.0000 
     12 C1B        99.6010   21.2790  -71.1000 C.3       1 FAD600      0.0000 
     13 N9A       100.9220   20.7220  -70.8600 N.pl3     1 FAD600      0.0000 
     14 C8A       101.8980   20.3770  -71.7550 C.2       1 FAD600      0.0000 
     15 N7A       102.9890   19.8900  -71.1990 N.2       1 FAD600      0.0000 
     16 C5A       102.7040   19.9230  -69.8340 C.ar      1 FAD600      0.0000 
     17 C6A       103.4690   19.5340  -68.6730 C.ar      1 FAD600      0.0000 
     18 N6A       104.7020   19.0280  -68.7760 N.pl3     1 FAD600      0.0000 
     19 N1A       102.8980   19.6940  -67.4440 N.ar      1 FAD600      0.0000 
     20 C2A       101.6310   20.2130  -67.3650 C.ar      1 FAD600      0.0000 
     21 N3A       100.8320   20.6070  -68.3710 N.ar      1 FAD600      0.0000 
     22 C4A       101.4630   20.4230  -69.6170 C.ar      1 FAD600      0.0000 
     23 N1         90.5530   20.5840  -83.3830 N.2       1 FAD600      0.0000 
     24 C2         89.2510   20.3390  -83.7610 C.2       1 FAD600      0.0000 
     25 O2         88.6680   19.2420  -83.5330 O.2       1 FAD600      0.0000 
     26 N3         88.5290   21.3490  -84.4300 N.am      1 FAD600      0.0000 
     27 C4         89.0350   22.6180  -84.7550 C.2       1 FAD600      0.0000 
     28 O4         88.3140   23.4470  -85.3490 O.2       1 FAD600      0.0000 
     29 C4X        90.3730   22.8630  -84.3620 C.2       1 FAD600      0.0000 
     30 N5         90.9460   24.1250  -84.6510 N.2       1 FAD600      0.0000 
     31 C5X        92.2530   24.3630  -84.2560 C.ar      1 FAD600      0.0000 
     32 C6         92.8470   25.6370  -84.5360 C.ar      1 FAD600      0.0000 
     33 C7         94.1520   25.9360  -84.1640 C.ar      1 FAD600      0.0000 
     34 C7M        94.6940   27.3290  -84.5040 C.3       1 FAD600      0.0000 
     35 C8         94.9410   24.9680  -83.4870 C.ar      1 FAD600      0.0000 
     36 C8M        96.3690   25.2220  -83.0480 C.3       1 FAD600      0.0000 
     37 C9         94.3620   23.6730  -83.1940 C.ar      1 FAD600      0.0000 
     38 C9A        93.0450   23.3470  -83.5600 C.ar      1 FAD600      0.0000 
     39 N10        92.4300   22.0540  -83.2780 N.pl3     1 FAD600      0.0000 
     40 C10        91.1070   21.8240  -83.6760 C.2       1 FAD600      0.0000 
     41 C1'        93.1830   20.9780  -82.5730 C.3       1 FAD600      0.0000 
     42 C2'        92.7410   20.7380  -81.1240 C.3       1 FAD600      0.0000 
     43 O2'        92.8470   21.9770  -80.4160 O.3       1 FAD600      0.0000 
     44 C3'        93.6130   19.6340  -80.5180 C.3       1 FAD600      0.0000 
     45 O3'        93.4490   18.4450  -81.3000 O.3       1 FAD600      0.0000 
     46 C4'        93.2530   19.2840  -79.0450 C.3       1 FAD600      0.0000 
     47 O4'        93.3870   20.4600  -78.2290 O.3       1 FAD600      0.0000 
     48 C5'        94.1960   18.1880  -78.5660 C.3       1 FAD600      0.0000 
     49 O5'        93.9010   17.7820  -77.2280 O.3       1 FAD600      0.0000 
     50 P          95.0500   17.2920  -76.2350 P.3       1 FAD600      0.0000 
     51 O1P        94.3640   16.9210  -74.9970 O.co2     1 FAD600      0.0000 
     52 O2P        95.8700   16.2510  -76.9180 O.co2     1 FAD600      0.0000 
     53 O3P        96.0280   18.5580  -75.9750 O.3       1 FAD600      0.0000 
     54 H          98.3816   20.3987  -74.3092 H         1 FAD600      0.0000 
     55 H          97.7930   18.9606  -73.4575 H         1 FAD600      0.0000 
     56 H          96.7355   20.6567  -71.8159 H         1 FAD600      0.0000 
     57 H          97.8380   22.5343  -73.4927 H         1 FAD600      0.0000 
     58 H          99.9389   21.8334  -73.0898 H         1 FAD600      0.0000 
     59 H          99.1936   21.7110  -70.1872 H         1 FAD600      0.0000 
     60 H         101.7687   20.4949  -72.7445 H         1 FAD600      0.0000 
     61 H         105.1568   18.7987  -67.9154 H         1 FAD600      0.0000 
     62 H         105.0589   18.9242  -69.7044 H         1 FAD600      0.0000 
     63 H         101.2292   20.3151  -66.3506 H         1 FAD600      0.0000 
     64 H          87.5312   21.1320  -84.7069 H         1 FAD600      0.0000 
     65 H          92.2723   26.3418  -85.0301 H         1 FAD600      0.0000 
     66 H          94.9481   22.9828  -82.7019 H         1 FAD600      0.0000 
     67 H          94.2648   21.2180  -82.5679 H         1 FAD600      0.0000 
     68 H          93.0812   20.0236  -83.1268 H         1 FAD600      0.0000 
     69 H          91.7198   20.3867  -81.1565 H         1 FAD600      0.0000 
     70 H          94.6446   19.9545  -80.5387 H         1 FAD600      0.0000 
     71 H          92.2510   18.9051  -79.0399 H         1 FAD600      0.0000 
     72 H          95.2284   18.5722  -78.6530 H         1 FAD600      0.0000 
     73 H          94.1132   17.3421  -79.2721 H         1 FAD600      0.0000 
     74 H          95.6379   27.4458  -84.1951 H         1 FAD600      0.0000 
     75 H          94.6845   27.5009  -85.4891 H         1 FAD600      0.0000 
     76 H          94.1535   28.0527  -84.0749 H         1 FAD600      0.0000 
     77 H          96.7623   24.4273  -82.5857 H         1 FAD600      0.0000 
     78 H          96.9638   25.4341  -83.8234 H         1 FAD600      0.0000 
     79 H          96.4308   25.9913  -82.4122 H         1 FAD600      0.0000 
     80 H          97.6538   22.9175  -70.6556 H         1 FAD600      0.0000 
     81 H         100.7365   23.3765  -71.2052 H         1 FAD600      0.0000 
     82 H          93.0575   21.7189  -79.4731 H         1 FAD600      0.0000 
     83 H          94.2920   17.9254  -81.1606 H         1 FAD600      0.0000 
     84 H          93.2925   20.1343  -77.2883 H         1 FAD600      0.0000 
@<TRIPOS>BOND
     1    2    1 ar   
     2    3    1 ar   
     3    4    1 1    
     4   53    1 1    
     5    5    4 1    
     6    6    5 1    
     7   54    5 1    
     8   55    5 1    
     9    7    6 1    
    10    8    6 1    
    11   56    6 1    
    12   12    7 1    
    13    9    8 1    
    14   10    8 1    
    15   57    8 1    
    16   80    9 1    
    17   11   10 1    
    18   12   10 1    
    19   58   10 1    
    20   81   11 1    
    21   13   12 1    
    22   59   12 1    
    23   14   13 1    
    24   22   13 1    
    25   15   14 2    
    26   60   14 1    
    27   16   15 1    
    28   17   16 ar   
    29   22   16 ar   
    30   18   17 1    
    31   19   17 ar   
    32   61   18 1    
    33   62   18 1    
    34   20   19 ar   
    35   21   20 ar   
    36   63   20 1    
    37   22   21 ar   
    38   24   23 1    
    39   40   23 2    
    40   25   24 2    
    41   26   24 am   
    42   27   26 am   
    43   64   26 1    
    44   28   27 2    
    45   29   27 1    
    46   30   29 2    
    47   40   29 1    
    48   31   30 1    
    49   32   31 ar   
    50   38   31 ar   
    51   33   32 ar   
    52   65   32 1    
    53   34   33 1    
    54   35   33 ar   
    55   74   34 1    
    56   75   34 1    
    57   76   34 1    
    58   36   35 1    
    59   37   35 ar   
    60   77   36 1    
    61   78   36 1    
    62   79   36 1    
    63   38   37 ar   
    64   66   37 1    
    65   39   38 1    
    66   40   39 1    
    67   41   39 1    
    68   42   41 1    
    69   67   41 1    
    70   68   41 1    
    71   43   42 1    
    72   44   42 1    
    73   69   42 1    
    74   82   43 1    
    75   45   44 1    
    76   46   44 1    
    77   70   44 1    
    78   83   45 1    
    79   47   46 1    
    80   48   46 1    
    81   71   46 1    
    82   84   47 1    
    83   49   48 1    
    84   72   48 1    
    85   73   48 1    
    86   50   49 1    
    87   51   50 ar   
    88   52   50 ar   
    89   53   50 1    
@<TRIPOS>SUBSTRUCTURE
     1 FAD600      1 GROUP   
@<TRIPOS>SET

