#    Name: 1dv2_ATP_1_INTS_M
#    Modification time : Mon Mar 24 22:28:07 2014

@<TRIPOS>MOLECULE
1dv2_ATP_1_INTS_M
   61     0    12     0     0
SMALL
NO_CHARGES


@<TRIPOS>ATOM
      1 NZ         27.1340   34.8485   42.2495 N.4       3 LYC4        0.0000 
      2 NZ         27.7010   35.8010   43.5920 N.4      11 LYL4        0.0000 
      3 NZ         26.5670   33.8960   40.9070 N.4       7 LYP4        0.0000 
      4 N          27.1340   34.8485   42.2495 N.am      2 SEC2        0.0000 
      5 N          27.7010   35.8010   43.5920 N.am     10 SEL2        0.0000 
      6 N          26.5670   33.8960   40.9070 N.am      6 SEP2        0.0000 
      7 N          29.8675   37.8615   42.0415 N.am      2 SEC2        0.0000 
      8 N          28.7580   37.6370   42.3980 N.am     10 SEL2        0.0000 
      9 N          30.9770   38.0860   41.6850 N.am      6 SEP2        0.0000 
     10 NZ         27.2295   34.8385   41.0100 N.4       3 LYC4        0.0000 
     11 NZ         27.8920   35.7810   41.1130 N.4      11 LYL4        0.0000 
     12 N          27.2295   34.8385   41.0100 N.am      2 SEC2        0.0000 
     13 N          27.8920   35.7810   41.1130 N.am     10 SEL2        0.0000 
     14 NZ         31.4400   32.4965   44.2405 N.4       3 LYC4        0.0000 
     15 NZ         31.0170   34.2100   44.6590 N.4      11 LYL4        0.0000 
     16 NZ         31.8630   30.7830   43.8220 N.4       7 LYP4        0.0000 
     17 N          31.8775   35.5495   44.7725 N.am      2 SEC2        0.0000 
     18 N          31.0170   34.2100   44.6590 N.am     10 SEL2        0.0000 
     19 N          32.7380   36.8890   44.8860 N.am      6 SEP2        0.0000 
     20 NZ         30.7410   31.8955   43.4680 N.4       3 LYC4        0.0000 
     21 NZ         29.6190   33.0080   43.1140 N.4      11 LYL4        0.0000 
     22 NZ         28.0930   33.4520   42.0105 N.4       3 LYC4        0.0000 
     23 N          30.4590   36.7865   42.1100 N.am      2 SEC2        0.0000 
     24 N          29.9410   35.4870   42.5350 N.am     10 SEL2        0.0000 
     25 NZ         31.9950   31.2945   42.5745 N.4       3 LYC4        0.0000 
     26 NZ         32.1270   31.8060   41.3270 N.4      11 LYL4        0.0000 
     27 N          31.9950   31.2945   42.5745 N.am      2 SEC2        0.0000 
     28 N          32.1270   31.8060   41.3270 N.am     10 SEL2        0.0000 
     29 N          31.8630   30.7830   43.8220 N.am      6 SEP2        0.0000 
     30 CA         36.1215   36.5120   36.0010 C.3       4 GLC5        0.0000 
     31 CA         35.2900   35.3430   37.7220 C.3      12 GLL5        0.0000 
     32 CA         36.9530   37.6810   34.2800 C.3       8 GLP5        0.0000 
     33 CA         36.3325   30.3155   39.6700 C.3       4 GLC5        0.0000 
     34 CA         37.4550   31.3290   38.0260 C.3      12 GLL5        0.0000 
     35 CA         35.2100   29.3020   41.3140 C.3       8 GLP5        0.0000 
     36 CA         39.0810   29.9050   39.2985 C.3       4 GLC5        0.0000 
     37 CA         38.3920   30.4680   37.4090 C.3      12 GLL5        0.0000 
     38 CA         39.7700   29.3420   41.1880 C.3       8 GLP5        0.0000 
     39 CA         40.4150   30.1225   37.1965 C.3       4 GLC5        0.0000 
     40 CA         42.4380   29.7770   36.9840 C.3       8 GLP5        0.0000 
     41 O          37.5995   28.4010   38.0815 O.2       1 ALC1        0.0000 
     42 O          38.4120   29.1400   37.6190 O.2       9 ALL1        0.0000 
     43 O          36.7870   27.6620   38.5440 O.2       5 ALP1        0.0000 
     44 O          39.4490   28.3940   37.2805 O.2       1 ALC1        0.0000 
     45 O          40.4860   27.6480   36.9420 O.2       5 ALP1        0.0000 
     46 N          40.4185   31.0210   35.8425 N.am      2 SEC2        0.0000 
     47 N          39.2910   31.0870   36.6190 N.am     10 SEL2        0.0000 
     48 N          41.5460   30.9550   35.0660 N.am      6 SEP2        0.0000 
     49 CA         40.8270   31.1075   36.6955 C.3       4 GLC5        0.0000 
     50 CA         39.2160   32.4380   36.4070 C.3      12 GLL5        0.0000 
     51 CA         40.3590   31.9160   35.0495 C.3       4 GLC5        0.0000 
     52 CA         41.5020   31.3940   33.6920 C.3       8 GLP5        0.0000 
     53 CA         37.4735   32.0175   35.5840 C.3       4 GLC5        0.0000 
     54 CA         35.7310   31.5970   34.7610 C.3       8 GLP5        0.0000 
     55 CA         34.2985   34.8178   41.9475 C.3       4 GLC5        0.0000 
     56 CA         34.4800   35.7340   39.7560 C.3      12 GLL5        0.0000 
     57 CA         34.6170   34.1190   43.6140 C.3       8 GLP5        0.0000 
     58 CA         38.6033   31.8708   39.6673 C.3       4 GLC5        0.0000 
     59 CA         37.5120   32.6860   37.7410 C.3      12 GLL5        0.0000 
     60 CA         39.7230   31.7340   41.4510 C.3       8 GLP5        0.0000 
     61 CA         36.7244   31.6946   36.2451 C.3       4 GLC5        0.0000 
@<TRIPOS>BOND
@<TRIPOS>SUBSTRUCTURE
     1 ALC1       41 GROUP        1 X    ALC  0     ROOT ALC X 1
     2 SEC2        4 GROUP        1 X    SEC  0     **** SEC X 2
     3 LYC4        1 GROUP        1 X    LYC  0     **** LYC X 4
     4 GLC5       30 GROUP        1 X    GLC  0     **** GLC X 6
     5 ALP1       43 GROUP        1 Y    ALP  0     ROOT ALP Y 8
     6 SEP2        6 GROUP        1 Y    SEP  0     **** SEP Y 9
     7 LYP4        3 GROUP        1 Y    LYP  0     **** LYP Y 11
     8 GLP5       32 GROUP        1 Y    GLP  0     **** GLP Y 13
     9 ALL1       42 GROUP        1 Z    ALL  0     ROOT ALL Z 15
    10 SEL2        5 GROUP        1 Z    SEL  0     **** SEL Z 16
    11 LYL4        2 GROUP        1 Z    LYL  0     **** LYL Z 18
    12 GLL5       31 GROUP        1 Z    GLL  0     **** GLL Z 20
@<TRIPOS>SET

