#    Name: 1dv2_ATP_1_ligand
#    Modification time : Mon Mar 24 22:28:07 2014

@<TRIPOS>MOLECULE
1dv2_ATP_1_ligand
   43    45     1     0     0
SMALL
NO_CHARGES


@<TRIPOS>ATOM
      1 PG         28.5610   36.1550   42.4000 P.3       1 ATP1000     0.0000 
      2 O1G        27.7010   35.8010   43.5920 O.co2     1 ATP1000     0.0000 
      3 O2G        28.7580   37.6370   42.3980 O.co2     1 ATP1000     0.0000 
      4 O3G        27.8920   35.7810   41.1130 O.co2     1 ATP1000     0.0000 
      5 PB         30.4800   34.2130   43.2740 P.3       1 ATP1000     0.0000 
      6 O1B        31.0170   34.2100   44.6590 O.co2     1 ATP1000     0.0000 
      7 O2B        29.6190   33.0080   43.1140 O.co2     1 ATP1000     0.0000 
      8 O3B        29.9410   35.4870   42.5350 O.3       1 ATP1000     0.0000 
      9 PA         31.9150   33.2550   41.0730 P.3       1 ATP1000     0.0000 
     10 O1A        32.1270   31.8060   41.3270 O.co2     1 ATP1000     0.0000 
     11 O2A        30.8150   33.4790   40.1010 O.co2     1 ATP1000     0.0000 
     12 O3A        31.7810   34.1160   42.3210 O.3       1 ATP1000     0.0000 
     13 O5'        33.2740   33.9100   40.6020 O.3       1 ATP1000     0.0000 
     14 C5'        33.4800   35.2990   40.8060 C.3       1 ATP1000     0.0000 
     15 C4'        34.4800   35.7340   39.7560 C.3       1 ATP1000     0.0000 
     16 O4'        35.6560   34.9530   39.9240 O.3       1 ATP1000     0.0000 
     17 C3'        34.1470   35.4340   38.3260 C.3       1 ATP1000     0.0000 
     18 O3'        33.2830   36.3940   37.7240 O.3       1 ATP1000     0.0000 
     19 C2'        35.2900   35.3430   37.7220 C.3       1 ATP1000     0.0000 
     20 O2'        35.7090   36.6800   37.4600 O.3       1 ATP1000     0.0000 
     21 C1'        36.2730   34.7300   38.6600 C.3       1 ATP1000     0.0000 
     22 N9         36.4790   33.2890   38.4650 N.pl3     1 ATP1000     0.0000 
     23 C8         35.8900   32.2780   39.1450 C.2       1 ATP1000     0.0000 
     24 N7         36.4210   31.0600   38.9050 N.2       1 ATP1000     0.0000 
     25 C5         37.4550   31.3290   38.0260 C.ar      1 ATP1000     0.0000 
     26 C6         38.3920   30.4680   37.4090 C.ar      1 ATP1000     0.0000 
     27 N6         38.4120   29.1400   37.6190 N.pl3     1 ATP1000     0.0000 
     28 N1         39.2910   31.0870   36.6190 N.ar      1 ATP1000     0.0000 
     29 C2         39.2160   32.4380   36.4070 C.ar      1 ATP1000     0.0000 
     30 N3         38.3750   33.2940   36.8870 N.ar      1 ATP1000     0.0000 
     31 C4         37.5120   32.6860   37.7410 C.ar      1 ATP1000     0.0000 
     32 H          33.8988   35.5112   41.7831 H         1 ATP1000     0.0000 
     33 H          32.5703   35.8721   40.6674 H         1 ATP1000     0.0000 
     34 H          34.7193   36.7658   39.8588 H         1 ATP1000     0.0000 
     35 H          33.6297   34.4449   38.3501 H         1 ATP1000     0.0000 
     36 H          35.2808   34.7759   36.8204 H         1 ATP1000     0.0000 
     37 H          37.1908   35.2722   38.6045 H         1 ATP1000     0.0000 
     38 H          35.1222   32.4232   39.7751 H         1 ATP1000     0.0000 
     39 H          37.7390   28.7871   38.2691 H         1 ATP1000     0.0000 
     40 H          39.0981   28.6237   37.1064 H         1 ATP1000     0.0000 
     41 H          40.0005   32.8260   35.7220 H         1 ATP1000     0.0000 
     42 H          33.0092   35.9855   36.8533 H         1 ATP1000     0.0000 
     43 H          34.8911   37.2389   37.5967 H         1 ATP1000     0.0000 
@<TRIPOS>BOND
     1    2    1 ar   
     2    3    1 ar   
     3    4    1 ar   
     4    8    1 1    
     5    6    5 ar   
     6    7    5 ar   
     7    8    5 1    
     8   12    5 1    
     9   10    9 ar   
    10   11    9 ar   
    11   12    9 1    
    12   13    9 1    
    13   14   13 1    
    14   15   14 1    
    15   32   14 1    
    16   33   14 1    
    17   16   15 1    
    18   17   15 1    
    19   34   15 1    
    20   21   16 1    
    21   18   17 1    
    22   19   17 1    
    23   35   17 1    
    24   42   18 1    
    25   20   19 1    
    26   21   19 1    
    27   36   19 1    
    28   43   20 1    
    29   22   21 1    
    30   37   21 1    
    31   23   22 1    
    32   31   22 1    
    33   24   23 2    
    34   38   23 1    
    35   25   24 1    
    36   26   25 ar   
    37   31   25 ar   
    38   27   26 1    
    39   28   26 ar   
    40   39   27 1    
    41   40   27 1    
    42   29   28 ar   
    43   30   29 ar   
    44   41   29 1    
    45   31   30 ar   
@<TRIPOS>SUBSTRUCTURE
     1 ATP1000     1 GROUP   
@<TRIPOS>SET

