#    Name: 1rv1_IMZ_1_INTS_M
#    Modification time : Tue Mar 25 01:14:47 2014

@<TRIPOS>MOLECULE
1rv1_IMZ_1_INTS_M
   82     0     6     0     0
SMALL
NO_CHARGES


@<TRIPOS>ATOM
      1 CA          9.9950    9.1245   16.4315 C.3       2 GLC5        0.0000 
      2 CA         12.0550    9.3540   16.0490 C.3       6 GLL5        0.0000 
      3 CA          7.9350    8.8950   16.8140 C.3       4 GLP5        0.0000 
      4 CA         11.7240    8.8440   18.9100 C.3       2 GLC5        0.0000 
      5 CA         12.6320    9.6520   17.2950 C.3       6 GLL5        0.0000 
      6 CA         10.8160    8.0360   20.5250 C.3       4 GLP5        0.0000 
      7 CA         16.1815    8.6685   18.5590 C.3       2 GLC5        0.0000 
      8 CA         14.7790    9.8260   19.1110 C.3       6 GLL5        0.0000 
      9 CA         17.5840    7.5110   18.0070 C.3       4 GLP5        0.0000 
     10 CA         13.8065   10.9085   20.4930 C.3       2 GLC5        0.0000 
     11 CA         12.8340   11.9910   21.8750 C.3       4 GLP5        0.0000 
     12 CA         14.1040    8.2085   20.2755 C.3       2 GLC5        0.0000 
     13 CA         13.4290    6.5910   21.4400 C.3       4 GLP5        0.0000 
     14 CA         16.5725    9.6325   19.9490 C.3       2 GLC5        0.0000 
     15 CA         18.3660    9.4390   20.7870 C.3       4 GLP5        0.0000 
     16 CA          7.4465    7.6075   14.6045 C.3       2 GLC5        0.0000 
     17 CA          7.6100    7.6900   12.6200 C.3       6 GLL5        0.0000 
     18 CA          7.2830    7.5250   16.5890 C.3       4 GLP5        0.0000 
     19 CA          7.1895    2.6570   14.6695 C.3       2 GLC5        0.0000 
     20 CA          7.4580    4.3070   13.9540 C.3       6 GLL5        0.0000 
     21 CA          6.9210    1.0070   15.3850 C.3       4 GLP5        0.0000 
     22 CA          6.5725    4.2500   15.8195 C.3       2 GLC5        0.0000 
     23 CA          5.6870    4.1930   17.6850 C.3       4 GLP5        0.0000 
     24 CA          3.9795   10.6030   13.1080 C.3       2 GLC5        0.0000 
     25 CA          4.4580   10.8450   10.9880 C.3       6 GLL5        0.0000 
     26 CA          3.5010   10.3610   15.2280 C.3       4 GLP5        0.0000 
     27 CA          5.0300   12.6005   11.6570 C.3       2 GLC5        0.0000 
     28 CA          5.6020   14.3560   12.3260 C.3       4 GLP5        0.0000 
     29 CA          4.1395   11.7765    9.1050 C.3       2 GLC5        0.0000 
     30 CA          3.8210   12.7080    7.2220 C.3       4 GLP5        0.0000 
     31 O           4.7310    6.3880    8.0970 O.2       1 ALC1        0.0000 
     32 O           5.4180    7.1650    7.5190 O.2       5 ALL1        0.0000 
     33 O           4.0440    5.6110    8.6750 O.2       3 ALP1        0.0000 
     34 CA          8.7595    9.3285    7.4800 C.3       2 GLC5        0.0000 
     35 CA          8.6490    8.4490    9.5400 C.3       6 GLL5        0.0000 
     36 CA          8.8700   10.2080    5.4200 C.3       4 GLP5        0.0000 
     37 CA         10.7775    6.8710   18.6160 C.3       2 GLC5        0.0000 
     38 CA         10.7390    5.7060   16.7070 C.3       6 GLL5        0.0000 
     39 CA         13.5190    2.8710   16.7660 C.3       2 GLC5        0.0000 
     40 CA         12.9020    4.7420   16.2520 C.3       6 GLL5        0.0000 
     41 CA         14.1360    1.0000   17.2800 C.3       4 GLP5        0.0000 
     42 CA         13.8390    4.9730   18.6515 C.3       2 GLC5        0.0000 
     43 CA         11.8210    4.1460   18.7870 C.3       6 GLL5        0.0000 
     44 CA         15.8570    5.8000   18.5160 C.3       4 GLP5        0.0000 
     45 CA         12.9785    2.5730   18.0335 C.3       2 GLC5        0.0000 
     46 CA         10.7255    2.9435   17.8625 C.3       2 GLC5        0.0000 
     47 CA          9.6300    1.7410   16.9380 C.3       4 GLP5        0.0000 
     48 CA         11.6735    3.2735   20.7515 C.3       2 GLC5        0.0000 
     49 CA         11.5260    2.4010   22.7160 C.3       4 GLP5        0.0000 
     50 CA         10.1535    4.1915   19.7075 C.3       2 GLC5        0.0000 
     51 CA          8.4860    4.2370   20.6280 C.3       4 GLP5        0.0000 
     52 CA         12.6250    5.3685   20.1135 C.3       2 GLC5        0.0000 
     53 CA         12.6822   11.2003   18.2055 C.3       2 GLC5        0.0000 
     54 CA         12.0440   12.8070   19.0390 C.3       4 GLP5        0.0000 
     55 CA         15.9960    8.4230   17.4620 C.3       2 GLC5        0.0000 
     56 CA         14.0090    9.5350   17.4490 C.3       6 GLL5        0.0000 
     57 CA          6.9358    3.7260   12.1660 C.3       2 GLC5        0.0000 
     58 CA          6.9030    5.6050   13.4720 C.3       6 GLL5        0.0000 
     59 CA          6.6910    2.4960   10.6190 C.3       4 GLP5        0.0000 
     60 CA          7.2317    6.2405   15.1510 C.3       2 GLC5        0.0000 
     61 CA          4.5825    7.5610   11.4550 C.3       2 GLC5        0.0000 
     62 CA          6.3000    8.0540   12.3790 C.3       6 GLL5        0.0000 
     63 CA          3.0270    6.4140   10.6900 C.3       4 GLP5        0.0000 
     64 CA          4.7845    8.7715   13.6770 C.3       2 GLC5        0.0000 
     65 CA          3.4310    8.8350   15.1340 C.3       4 GLP5        0.0000 
     66 CA          7.2895   12.1445   12.1315 C.3       2 GLC5        0.0000 
     67 CA          6.9840   10.3350   11.9760 C.3       6 GLL5        0.0000 
     68 CA          6.9280   14.1340   12.1640 C.3       4 GLP5        0.0000 
     69 CA          7.3552    4.1997   10.2055 C.3       2 GLC5        0.0000 
     70 CA          7.3870    6.2560    9.5610 C.3       6 GLL5        0.0000 
     71 CA          8.0227    8.6730    6.2660 C.3       2 GLC5        0.0000 
     72 CA          6.5910    6.7500    6.8410 C.3       6 GLL5        0.0000 
     73 CA          9.0233    6.7848   16.3407 C.3       2 GLC5        0.0000 
     74 CA         10.7880    6.3830   15.4780 C.3       6 GLL5        0.0000 
     75 CA         14.1045    5.3090   17.5930 C.3       2 GLC5        0.0000 
     76 CA         11.8020    4.8940   17.0880 C.3       6 GLL5        0.0000 
     77 CA         12.4624    3.7530   14.4629 C.3       2 GLC5        0.0000 
     78 CA         12.2640    2.2140   13.3840 C.3       4 GLP5        0.0000 
     79 CA         10.8581    3.3810   16.7564 C.3       2 GLC5        0.0000 
     80 CA          7.0968    9.6261   14.0971 C.3       2 GLC5        0.0000 
     81 CA          5.9760    9.3620   12.0610 C.3       6 GLL5        0.0000 
     82 CA          7.2560    9.9860   15.9930 C.3       4 GLP5        0.0000 
@<TRIPOS>BOND
@<TRIPOS>SUBSTRUCTURE
     1 ALC1       31 GROUP        1 X    ALC  0     ROOT ALC X 1
     2 GLC5        1 GROUP        1 X    GLC  0     **** GLC X 6
     3 ALP1       33 GROUP        1 Y    ALP  0     ROOT ALP Y 8
     4 GLP5        3 GROUP        1 Y    GLP  0     **** GLP Y 13
     5 ALL1       32 GROUP        1 Z    ALL  0     ROOT ALL Z 15
     6 GLL5        2 GROUP        1 Z    GLL  0     **** GLL Z 20
@<TRIPOS>SET

