#    Name: 1rv1_IMZ_1_ligand
#    Modification time : Tue Mar 25 01:14:48 2014

@<TRIPOS>MOLECULE
1rv1_IMZ_1_ligand
   76    80     1     0     0
SMALL
NO_CHARGES


@<TRIPOS>ATOM
      1 C4         12.2280    8.6240   13.6240 C.3       1 IMZ110      0.0000 
      2 C40        12.8510    8.9460   14.9790 C.ar      1 IMZ110      0.0000 
      3 C45        12.0550    9.3540   16.0490 C.ar      1 IMZ110      0.0000 
      4 C44        12.6320    9.6520   17.2950 C.ar      1 IMZ110      0.0000 
      5 C41        14.2290    8.8410   15.1600 C.ar      1 IMZ110      0.0000 
      6 C42        14.8070    9.1350   16.3850 C.ar      1 IMZ110      0.0000 
      7 C43        14.0090    9.5350   17.4490 C.ar      1 IMZ110      0.0000 
      8 BR43       14.7790    9.8260   19.1110 Br        1 IMZ110      0.0000 
      9 N3         10.9310    9.2340   13.4740 N.2       1 IMZ110      0.0000 
     10 C2         10.0650    8.3550   12.8880 C.2       1 IMZ110      0.0000 
     11 C20         8.6620    8.6530   12.5560 C.ar      1 IMZ110      0.0000 
     12 C26         7.6100    7.6900   12.6200 C.ar      1 IMZ110      0.0000 
     13 O26         7.9380    6.3730   12.8810 O.3       1 IMZ110      0.0000 
     14 C27         6.9030    5.6050   13.4720 C.3       1 IMZ110      0.0000 
     15 C28         7.4580    4.3070   13.9540 C.3       1 IMZ110      0.0000 
     16 C25         6.3000    8.0540   12.3790 C.ar      1 IMZ110      0.0000 
     17 C21         8.3180    9.9750   12.2220 C.ar      1 IMZ110      0.0000 
     18 C22         6.9840   10.3350   11.9760 C.ar      1 IMZ110      0.0000 
     19 C23         5.9760    9.3620   12.0610 C.ar      1 IMZ110      0.0000 
     20 O23         4.6550    9.6950   11.8340 O.3       1 IMZ110      0.0000 
     21 C24         4.4580   10.8450   10.9880 C.3       1 IMZ110      0.0000 
     22 N1         10.7080    7.1140   12.6170 N.am      1 IMZ110      0.0000 
     23 C10        10.2210    6.1400   11.8090 C.2       1 IMZ110      0.0000 
     24 O10        10.3110    4.9580   12.1250 O.2       1 IMZ110      0.0000 
     25 N10         9.5790    6.5030   10.6780 N.am      1 IMZ110      0.0000 
     26 C15         8.6520    5.5510   10.0230 C.3       1 IMZ110      0.0000 
     27 C14         7.3870    6.2560    9.5610 C.3       1 IMZ110      0.0000 
     28 N13         7.7360    7.5210    8.8490 N.4       1 IMZ110      0.0000 
     29 C13         7.7600    7.5260    7.3830 C.3       1 IMZ110      0.0000 
     30 C16         6.5910    6.7500    6.8410 C.3       1 IMZ110      0.0000 
     31 O17         5.4180    7.1650    7.5190 O.3       1 IMZ110      0.0000 
     32 C11         9.9240    7.7300    9.9280 C.3       1 IMZ110      0.0000 
     33 C12         8.6490    8.4490    9.5400 C.3       1 IMZ110      0.0000 
     34 C5         11.9950    7.0870   13.3310 C.3       1 IMZ110      0.0000 
     35 C50        11.8920    6.2580   14.6360 C.ar      1 IMZ110      0.0000 
     36 C51        10.7880    6.3830   15.4780 C.ar      1 IMZ110      0.0000 
     37 C52        10.7390    5.7060   16.7070 C.ar      1 IMZ110      0.0000 
     38 C55        12.9470    5.4260   15.0270 C.ar      1 IMZ110      0.0000 
     39 C54        12.9020    4.7420   16.2520 C.ar      1 IMZ110      0.0000 
     40 C53        11.8020    4.8940   17.0880 C.ar      1 IMZ110      0.0000 
     41 BR53       11.8210    4.1460   18.7870 Br        1 IMZ110      0.0000 
     42 H          12.8855    8.9838   12.8278 H         1 IMZ110      0.0000 
     43 H          11.0365    9.4389   15.9297 H         1 IMZ110      0.0000 
     44 H          12.0428    9.9498   18.0724 H         1 IMZ110      0.0000 
     45 H          14.8236    8.5402   14.3698 H         1 IMZ110      0.0000 
     46 H          15.8254    9.0574   16.5072 H         1 IMZ110      0.0000 
     47 H           6.0972    5.3944   12.7532 H         1 IMZ110      0.0000 
     48 H           6.4501    6.1295   14.3265 H         1 IMZ110      0.0000 
     49 H           5.5499    7.3416   12.4364 H         1 IMZ110      0.0000 
     50 H           9.0579   10.6897   12.1572 H         1 IMZ110      0.0000 
     51 H           6.7480   11.2993   11.7365 H         1 IMZ110      0.0000 
     52 H           8.3744    4.7526   10.7194 H         1 IMZ110      0.0000 
     53 H           9.1339    5.0898    9.1543 H         1 IMZ110      0.0000 
     54 H           6.7660    6.4752   10.4300 H         1 IMZ110      0.0000 
     55 H           6.8346    5.5924    8.8951 H         1 IMZ110      0.0000 
     56 H           6.6425    8.1534    9.0365 H         1 IMZ110      0.0000 
     57 H           8.6877    7.0741    7.0142 H         1 IMZ110      0.0000 
     58 H           7.7112    8.5527    7.0032 H         1 IMZ110      0.0000 
     59 H           6.7897    5.6828    6.9879 H         1 IMZ110      0.0000 
     60 H           6.5254    6.9362    5.7635 H         1 IMZ110      0.0000 
     61 H          10.4779    7.4796    9.0249 H         1 IMZ110      0.0000 
     62 H          10.5308    8.3925   10.5427 H         1 IMZ110      0.0000 
     63 H           8.1786    8.8445   10.4440 H         1 IMZ110      0.0000 
     64 H           8.9028    9.2897    8.8892 H         1 IMZ110      0.0000 
     65 H          12.7661    6.7531   12.7155 H         1 IMZ110      0.0000 
     66 H           9.9944    6.9798   15.1983 H         1 IMZ110      0.0000 
     67 H           9.9228    5.8133   17.3152 H         1 IMZ110      0.0000 
     68 H          13.7644    5.3132   14.4121 H         1 IMZ110      0.0000 
     69 H          13.6809    4.1339   16.5235 H         1 IMZ110      0.0000 
     70 H           7.8591    3.7748   13.2084 H         1 IMZ110      0.0000 
     71 H           8.1755    4.4408   14.6376 H         1 IMZ110      0.0000 
     72 H           6.7539    3.7359   14.3760 H         1 IMZ110      0.0000 
     73 H           4.8801   11.6658   11.3728 H         1 IMZ110      0.0000 
     74 H           4.8540   10.7101   10.0797 H         1 IMZ110      0.0000 
     75 H           3.4876   11.0482   10.8575 H         1 IMZ110      0.0000 
     76 H           5.0524    6.3331    7.9364 H         1 IMZ110      0.0000 
@<TRIPOS>BOND
     1    2    1 1    
     2    9    1 1    
     3   34    1 1    
     4   42    1 1    
     5    3    2 ar   
     6    5    2 ar   
     7    4    3 ar   
     8   43    3 1    
     9    7    4 ar   
    10   44    4 1    
    11    6    5 ar   
    12   45    5 1    
    13    7    6 ar   
    14   46    6 1    
    15    8    7 1    
    16   10    9 2    
    17   11   10 1    
    18   22   10 1    
    19   12   11 ar   
    20   17   11 ar   
    21   13   12 1    
    22   16   12 ar   
    23   14   13 1    
    24   15   14 1    
    25   47   14 1    
    26   48   14 1    
    27   70   15 1    
    28   71   15 1    
    29   72   15 1    
    30   19   16 ar   
    31   49   16 1    
    32   18   17 ar   
    33   50   17 1    
    34   19   18 ar   
    35   51   18 1    
    36   20   19 1    
    37   21   20 1    
    38   73   21 1    
    39   74   21 1    
    40   75   21 1    
    41   23   22 am   
    42   34   22 1    
    43   24   23 2    
    44   25   23 am   
    45   26   25 1    
    46   32   25 1    
    47   27   26 1    
    48   52   26 1    
    49   53   26 1    
    50   28   27 1    
    51   54   27 1    
    52   55   27 1    
    53   29   28 1    
    54   33   28 1    
    55   56   28 1    
    56   30   29 1    
    57   57   29 1    
    58   58   29 1    
    59   31   30 1    
    60   59   30 1    
    61   60   30 1    
    62   76   31 1    
    63   33   32 1    
    64   61   32 1    
    65   62   32 1    
    66   63   33 1    
    67   64   33 1    
    68   35   34 1    
    69   65   34 1    
    70   36   35 ar   
    71   38   35 ar   
    72   37   36 ar   
    73   66   36 1    
    74   40   37 ar   
    75   67   37 1    
    76   39   38 ar   
    77   68   38 1    
    78   40   39 ar   
    79   69   39 1    
    80   41   40 1    
@<TRIPOS>SUBSTRUCTURE
     1 IMZ110      1 GROUP   
@<TRIPOS>SET

