#    Name: 4bls_APC_2_INTS_M
#    Modification time : Tue Mar 25 07:54:10 2014

@<TRIPOS>MOLECULE
4bls_APC_2_INTS_M
   37     0    12     0     0
SMALL
NO_CHARGES


@<TRIPOS>ATOM
      1 NZ         63.2360   48.8545   24.7330 N.4       3 LYC4        0.0000 
      2 NZ         63.9400   50.3970   25.1860 N.4      11 LYL4        0.0000 
      3 NZ         62.5320   47.3120   24.2800 N.4       7 LYP4        0.0000 
      4 N          63.1805   50.5780   24.2380 N.am      2 SEC2        0.0000 
      5 N          63.9400   50.3970   25.1860 N.am     10 SEL2        0.0000 
      6 N          62.4210   50.7590   23.2900 N.am      6 SEP2        0.0000 
      7 NZ         63.8615   47.8345   24.2870 N.4       3 LYC4        0.0000 
      8 NZ         65.1910   48.3570   24.2940 N.4      11 LYL4        0.0000 
      9 NZ         67.7025   49.0580   25.5460 N.4       3 LYC4        0.0000 
     10 NZ         66.4720   50.3680   25.1640 N.4      11 LYL4        0.0000 
     11 NZ         68.9330   47.7480   25.9280 N.4       7 LYP4        0.0000 
     12 N          61.5195   52.6780   30.6450 N.am      2 SEC2        0.0000 
     13 N          62.2690   52.5180   29.6600 N.am     10 SEL2        0.0000 
     14 N          60.7700   52.8380   31.6300 N.am      6 SEP2        0.0000 
     15 CA         66.2930   50.7215   32.0265 C.3       4 GLC5        0.0000 
     16 CA         65.7590   52.2620   31.0400 C.3      12 GLL5        0.0000 
     17 CA         66.8270   49.1810   33.0130 C.3       8 GLP5        0.0000 
     18 CA         63.7410   54.2340   31.9050 C.3       4 GLC5        0.0000 
     19 CA         65.4650   53.6730   31.5420 C.3      12 GLL5        0.0000 
     20 CA         62.0170   54.7950   32.2680 C.3       8 GLP5        0.0000 
     21 CA         64.0040   54.9050   32.8255 C.3       4 GLC5        0.0000 
     22 CA         65.9910   55.0150   33.3830 C.3      12 GLL5        0.0000 
     23 CA         64.9285   53.3950   34.4830 C.3       4 GLC5        0.0000 
     24 CA         63.8660   51.7750   35.5830 C.3       8 GLP5        0.0000 
     25 CA         65.1370   55.3150   35.3535 C.3       4 GLC5        0.0000 
     26 CA         64.2830   55.6150   37.3240 C.3       8 GLP5        0.0000 
     27 N          69.0015   53.5270   37.3275 N.am      2 SEC2        0.0000 
     28 N          68.2210   54.1400   36.1630 N.am     10 SEL2        0.0000 
     29 N          69.7820   52.9140   38.4920 N.am      6 SEP2        0.0000 
     30 O          69.5670   54.4690   38.4725 O.2       1 ALC1        0.0000 
     31 O          69.3520   56.0240   38.4530 O.2       9 ALL1        0.0000 
     32 O          69.7820   52.9140   38.4920 O.2       5 ALP1        0.0000 
     33 CA         64.3755   52.0637   32.8560 C.3       4 GLC5        0.0000 
     34 CA         63.1390   51.1600   34.4210 C.3       8 GLP5        0.0000 
     35 CA         68.4327   54.0898   37.8725 C.3       4 GLC5        0.0000 
     36 CA         68.0560   55.4470   36.4240 C.3      12 GLL5        0.0000 
     37 CA         68.5720   52.2520   38.8090 C.3       8 GLP5        0.0000 
@<TRIPOS>BOND
@<TRIPOS>SUBSTRUCTURE
     1 ALC1       30 GROUP        1 X    ALC  0     ROOT ALC X 1
     2 SEC2        4 GROUP        1 X    SEC  0     **** SEC X 2
     3 LYC4        1 GROUP        1 X    LYC  0     **** LYC X 4
     4 GLC5       15 GROUP        1 X    GLC  0     **** GLC X 6
     5 ALP1       32 GROUP        1 Y    ALP  0     ROOT ALP Y 8
     6 SEP2        6 GROUP        1 Y    SEP  0     **** SEP Y 9
     7 LYP4        3 GROUP        1 Y    LYP  0     **** LYP Y 11
     8 GLP5       17 GROUP        1 Y    GLP  0     **** GLP Y 13
     9 ALL1       31 GROUP        1 Z    ALL  0     ROOT ALL Z 15
    10 SEL2        5 GROUP        1 Z    SEL  0     **** SEL Z 16
    11 LYL4        2 GROUP        1 Z    LYL  0     **** LYL Z 18
    12 GLL5       16 GROUP        1 Z    GLL  0     **** GLL Z 20
@<TRIPOS>SET

