#    Name: 4bls_APC_2_ligand
#    Modification time : Tue Mar 25 07:54:10 2014

@<TRIPOS>MOLECULE
4bls_APC_2_ligand
   45    47     1     0     0
SMALL
NO_CHARGES


@<TRIPOS>ATOM
      1 PG         65.1920   49.5590   25.2090 P.3       1 APC400      0.0000 
      2 O1G        63.9400   50.3970   25.1860 O.co2     1 APC400      0.0000 
      3 O2G        65.1910   48.3570   24.2940 O.co2     1 APC400      0.0000 
      4 O3G        66.4720   50.3680   25.1640 O.co2     1 APC400      0.0000 
      5 PB         65.2360   49.8160   27.9880 P.3       1 APC400      0.0000 
      6 O1B        65.8210   49.0530   29.1150 O.co2     1 APC400      0.0000 
      7 O2B        66.1600   51.1010   27.6780 O.co2     1 APC400      0.0000 
      8 O3B        65.1470   48.8920   26.6770 O.3       1 APC400      0.0000 
      9 PA         63.7220   51.9070   29.3770 P.3       1 APC400      0.0000 
     10 O1A        62.2690   52.5180   29.6600 O.co2     1 APC400      0.0000 
     11 O2A        64.4500   52.8920   28.5490 O.co2     1 APC400      0.0000 
     12 C3A        63.5710   50.3520   28.4640 C.3       1 APC400      0.0000 
     13 O5'        64.5210   51.6110   30.7470 O.3       1 APC400      0.0000 
     14 C5'        65.7590   52.2620   31.0400 C.3       1 APC400      0.0000 
     15 C4'        65.4650   53.6730   31.5420 C.3       1 APC400      0.0000 
     16 O4'        65.5430   53.7190   32.9710 O.3       1 APC400      0.0000 
     17 C3'        66.4310   54.7250   31.0130 C.3       1 APC400      0.0000 
     18 O3'        65.8400   55.4360   29.9180 O.3       1 APC400      0.0000 
     19 C2'        66.7250   55.6280   32.1980 C.3       1 APC400      0.0000 
     20 O2'        66.2610   56.9610   31.9780 O.3       1 APC400      0.0000 
     21 C1'        65.9910   55.0150   33.3830 C.3       1 APC400      0.0000 
     22 N9         66.8720   54.9390   34.5790 N.pl3     1 APC400      0.0000 
     23 C8         67.5010   53.8460   35.0490 C.2       1 APC400      0.0000 
     24 N7         68.2210   54.1400   36.1630 N.2       1 APC400      0.0000 
     25 C5         68.0560   55.4470   36.4240 C.ar      1 APC400      0.0000 
     26 C6         68.5310   56.4080   37.4480 C.ar      1 APC400      0.0000 
     27 N6         69.3520   56.0240   38.4530 N.pl3     1 APC400      0.0000 
     28 N1         68.1120   57.6880   37.3430 N.ar      1 APC400      0.0000 
     29 C2         67.2900   58.1040   36.3560 C.ar      1 APC400      0.0000 
     30 N3         66.8250   57.2810   35.3940 N.ar      1 APC400      0.0000 
     31 C4         67.1650   55.9690   35.3740 C.ar      1 APC400      0.0000 
     32 H          63.2151   49.6581   29.1186 H         1 APC400      0.0000 
     33 H          63.0726   50.5626   27.6015 H         1 APC400      0.0000 
     34 H          66.3934   52.3459   30.1549 H         1 APC400      0.0000 
     35 H          66.3190   51.7387   31.8180 H         1 APC400      0.0000 
     36 H          64.4625   53.9526   31.2214 H         1 APC400      0.0000 
     37 H          67.3382   54.2238   30.7381 H         1 APC400      0.0000 
     38 H          67.7745   55.5858   32.4048 H         1 APC400      0.0000 
     39 H          65.1402   55.6540   33.5987 H         1 APC400      0.0000 
     40 H          67.4508   52.9528   34.6460 H         1 APC400      0.0000 
     41 H          69.6189   56.7380   39.1002 H         1 APC400      0.0000 
     42 H          69.6190   55.0603   38.4592 H         1 APC400      0.0000 
     43 H          66.9970   59.1245   36.3368 H         1 APC400      0.0000 
     44 H          65.3439   54.7418   29.3965 H         1 APC400      0.0000 
     45 H          65.6435   56.8939   31.1943 H         1 APC400      0.0000 
@<TRIPOS>BOND
     1    2    1 ar   
     2    3    1 ar   
     3    4    1 ar   
     4    8    1 1    
     5    6    5 ar   
     6    7    5 ar   
     7    8    5 1    
     8   12    5 1    
     9   10    9 ar   
    10   11    9 ar   
    11   12    9 1    
    12   13    9 1    
    13   32   12 1    
    14   33   12 1    
    15   14   13 1    
    16   15   14 1    
    17   34   14 1    
    18   35   14 1    
    19   16   15 1    
    20   17   15 1    
    21   36   15 1    
    22   21   16 1    
    23   18   17 1    
    24   19   17 1    
    25   37   17 1    
    26   44   18 1    
    27   20   19 1    
    28   21   19 1    
    29   38   19 1    
    30   45   20 1    
    31   22   21 1    
    32   39   21 1    
    33   23   22 1    
    34   31   22 1    
    35   24   23 2    
    36   40   23 1    
    37   25   24 1    
    38   26   25 ar   
    39   31   25 ar   
    40   27   26 1    
    41   28   26 ar   
    42   41   27 1    
    43   42   27 1    
    44   29   28 ar   
    45   30   29 ar   
    46   43   29 1    
    47   31   30 ar   
@<TRIPOS>SUBSTRUCTURE
     1 APC400      1 GROUP   
@<TRIPOS>SET

