#    Name: 3g1o_RF1_1_INTS_M
#    Modification time : Tue Mar 25 06:59:34 2014

@<TRIPOS>MOLECULE
3g1o_RF1_1_INTS_M
   55     0     6     0     0
SMALL
NO_CHARGES


@<TRIPOS>ATOM
      1 CA         32.1840   65.1430   15.6230 C.3       2 GLC5        0.0000 
      2 CA         32.8760   64.8610   14.0620 C.3       6 GLL5        0.0000 
      3 CA         31.4920   65.4250   17.1840 C.3       4 GLP5        0.0000 
      4 CA         34.0840   64.9080   15.6450 C.3       2 GLC5        0.0000 
      5 CA         35.2920   64.9550   17.2280 C.3       4 GLP5        0.0000 
      6 CA         35.6935   63.2615   11.9545 C.3       2 GLC5        0.0000 
      7 CA         34.9660   64.6910   12.7750 C.3       6 GLL5        0.0000 
      8 CA         36.4210   61.8320   11.1340 C.3       4 GLP5        0.0000 
      9 CA         36.1390   66.2285   12.9470 C.3       2 GLC5        0.0000 
     10 CA         37.3120   67.7660   13.1190 C.3       4 GLP5        0.0000 
     11 CA         36.2205   64.5240   14.4365 C.3       2 GLC5        0.0000 
     12 CA         37.4750   64.3570   16.0980 C.3       4 GLP5        0.0000 
     13 CA         31.1320   64.3605   10.4365 C.3       2 GLC5        0.0000 
     14 CA         32.7520   64.6570   11.5980 C.3       6 GLL5        0.0000 
     15 CA         29.5120   64.0640    9.2750 C.3       4 GLP5        0.0000 
     16 CA         32.4175   65.7280   10.0710 C.3       2 GLC5        0.0000 
     17 CA         32.0830   66.7990    8.5440 C.3       4 GLP5        0.0000 
     18 CA         31.5290   68.4885   12.8240 C.3       2 GLC5        0.0000 
     19 CA         33.3500   69.5010   12.9920 C.3       6 GLL5        0.0000 
     20 CA         29.7080   67.4760   12.6560 C.3       4 GLP5        0.0000 
     21 CA         35.3310   68.6335   13.0555 C.3       2 GLC5        0.0000 
     22 CA         30.8850   70.1965   13.3000 C.3       2 GLC5        0.0000 
     23 CA         32.6770   70.8310   12.7140 C.3       6 GLL5        0.0000 
     24 CA         29.0930   69.5620   13.8860 C.3       4 GLP5        0.0000 
     25 CA         35.9570   68.5530   11.1855 C.3       2 GLC5        0.0000 
     26 CA         34.4420   69.6180   10.6110 C.3       6 GLL5        0.0000 
     27 CA         37.4720   67.4880   11.7600 C.3       4 GLP5        0.0000 
     28 CA         33.2625   68.2085    9.5775 C.3       2 GLC5        0.0000 
     29 CA         31.5185   71.3990    9.7890 C.3       2 GLC5        0.0000 
     30 CA         33.5620   70.8530   10.3330 C.3       6 GLL5        0.0000 
     31 CA         29.4750   71.9450    9.2450 C.3       4 GLP5        0.0000 
     32 N          33.8600   73.9930    9.4930 N.am      1 SEC2        0.0000 
     33 N          32.5620   73.7580   10.4070 N.am      5 SEL2        0.0000 
     34 N          35.1580   74.2280    8.5790 N.am      3 SEP2        0.0000 
     35 CA         31.3459   66.1662   12.5799 C.3       2 GLC5        0.0000 
     36 CA         33.5550   65.2510   12.7570 C.3       6 GLL5        0.0000 
     37 CA         31.1438   71.4455   11.3803 C.3       2 GLC5        0.0000 
     38 CA         29.2470   71.6480   10.5890 C.3       4 GLP5        0.0000 
     39 CA         34.7725   70.3193    8.8270 C.3       2 GLC5        0.0000 
     40 CA         35.5430   70.4030    7.1820 C.3       4 GLP5        0.0000 
     41 CA         35.3635   71.5141   11.5113 C.3       2 GLC5        0.0000 
     42 CA         37.0240   72.0830   11.9720 C.3       4 GLP5        0.0000 
     43 CA         31.4555   76.2120    6.7310 C.3       2 GLC5        0.0000 
     44 CA         31.3940   76.0390    8.6640 C.3       6 GLL5        0.0000 
     45 CA         31.7600   75.7930    5.0090 C.3       4 GLP5        0.0000 
     46 CA         30.1677   74.9998    8.0164 C.3       2 GLC5        0.0000 
     47 CA         30.9080   77.2230    8.2420 C.3       6 GLL5        0.0000 
     48 CA         29.2000   73.4140    7.2500 C.3       4 GLP5        0.0000 
     49 CA         33.0328   76.5803    8.5349 C.3       2 GLC5        0.0000 
     50 CA         34.9300   76.5750    8.2870 C.3       4 GLP5        0.0000 
     51 CA         31.7612   79.0325    8.4968 C.3       2 GLC5        0.0000 
     52 CA         32.8460   80.4270    8.2750 C.3       4 GLP5        0.0000 
     53 CA         30.5947   78.3480   11.7540 C.3       2 GLC5        0.0000 
     54 CA         30.4450   78.0530    9.1950 C.3       6 GLL5        0.0000 
     55 CA         30.6520   79.0590   13.5740 C.3       4 GLP5        0.0000 
@<TRIPOS>BOND
@<TRIPOS>SUBSTRUCTURE
     1 SEC2       32 GROUP        1 X    SEC  0     ROOT SEC X 2
     2 GLC5        1 GROUP        1 X    GLC  0     **** GLC X 6
     3 SEP2       34 GROUP        1 Y    SEP  0     ROOT SEP Y 9
     4 GLP5        3 GROUP        1 Y    GLP  0     **** GLP Y 13
     5 SEL2       33 GROUP        1 Z    SEL  0     ROOT SEL Z 16
     6 GLL5        2 GROUP        1 Z    GLL  0     **** GLL Z 20
@<TRIPOS>SET

