#    Name: 3g1o_RF1_1_ligand
#    Modification time : Tue Mar 25 06:59:34 2014

@<TRIPOS>MOLECULE
3g1o_RF1_1_ligand
   44    46     1     0     0
SMALL
NO_CHARGES


@<TRIPOS>ATOM
      1 C14        32.8760   64.8610   14.0620 C.3       1 RF1237      0.0000 
      2 C10        33.5550   65.2510   12.7570 C.3       1 RF1237      0.0000 
      3 C15        34.9660   64.6910   12.7750 C.3       1 RF1237      0.0000 
      4 C16        32.7520   64.6570   11.5980 C.3       1 RF1237      0.0000 
      5 O2         33.5760   66.7480   12.7510 O.3       1 RF1237      0.0000 
      6 C3         34.0200   67.5100   11.7040 C.2       1 RF1237      0.0000 
      7 O3         34.5220   66.9830   10.7050 O.2       1 RF1237      0.0000 
      8 N3         33.9080   68.8480   11.7620 N.am      1 RF1237      0.0000 
      9 C7         33.3500   69.5010   12.9920 C.3       1 RF1237      0.0000 
     10 C12        32.6770   70.8310   12.7140 C.3       1 RF1237      0.0000 
     11 C6         34.4420   69.6180   10.6110 C.3       1 RF1237      0.0000 
     12 C13        33.5620   70.8530   10.3330 C.3       1 RF1237      0.0000 
     13 C5         33.4040   71.6550   11.6290 C.3       1 RF1237      0.0000 
     14 C2         32.5900   72.9360   11.4430 C.2       1 RF1237      0.0000 
     15 N1         32.5620   73.7580   10.4070 N.2       1 RF1237      0.0000 
     16 O1         31.7990   73.4080   12.4450 O.3       1 RF1237      0.0000 
     17 N2         31.2510   74.5840   11.9540 N.2       1 RF1237      0.0000 
     18 C1         31.7190   74.7670   10.7440 C.2       1 RF1237      0.0000 
     19 C4         31.3320   75.8570    9.9830 C.2       1 RF1237      0.0000 
     20 C8         31.3940   76.0390    8.6640 C.2       1 RF1237      0.0000 
     21 C11        30.9080   77.2230    8.2420 C.2       1 RF1237      0.0000 
     22 C9         30.4450   78.0530    9.1950 C.2       1 RF1237      0.0000 
     23 S1         30.6300   77.2210   10.6730 S.3       1 RF1237      0.0000 
     24 H          34.1608   69.6586   13.7245 H         1 RF1237      0.0000 
     25 H          32.6186   68.8245   13.4677 H         1 RF1237      0.0000 
     26 H          32.6411   71.4247   13.6356 H         1 RF1237      0.0000 
     27 H          31.6444   70.6592   12.3864 H         1 RF1237      0.0000 
     28 H          34.4587   69.0008    9.7117 H         1 RF1237      0.0000 
     29 H          35.4569   69.9609   10.8171 H         1 RF1237      0.0000 
     30 H          32.5923   70.5270    9.9897 H         1 RF1237      0.0000 
     31 H          34.0390   71.4667    9.5846 H         1 RF1237      0.0000 
     32 H          34.3744   71.9194   12.0163 H         1 RF1237      0.0000 
     33 H          31.7713   75.3533    8.0291 H         1 RF1237      0.0000 
     34 H          30.8923   77.4752    7.2554 H         1 RF1237      0.0000 
     35 H          30.0886   78.8721    9.2592 H         1 RF1237      0.0000 
     36 H          32.8345   63.8685   14.1769 H         1 RF1237      0.0000 
     37 H          33.3598   65.2281   14.8565 H         1 RF1237      0.0000 
     38 H          31.9367   65.2009   14.1080 H         1 RF1237      0.0000 
     39 H          35.4664   64.9180   11.9395 H         1 RF1237      0.0000 
     40 H          35.4982   65.0496   13.5419 H         1 RF1237      0.0000 
     41 H          34.9690   63.6944   12.8568 H         1 RF1237      0.0000 
     42 H          33.1560   64.8835   10.7117 H         1 RF1237      0.0000 
     43 H          32.7042   63.6596   11.6520 H         1 RF1237      0.0000 
     44 H          31.8111   64.9954   11.5862 H         1 RF1237      0.0000 
@<TRIPOS>BOND
     1    2    1 1    
     2   36    1 1    
     3   37    1 1    
     4   38    1 1    
     5    3    2 1    
     6    4    2 1    
     7    5    2 1    
     8   39    3 1    
     9   40    3 1    
    10   41    3 1    
    11   42    4 1    
    12   43    4 1    
    13   44    4 1    
    14    6    5 1    
    15    7    6 2    
    16    8    6 am   
    17    9    8 1    
    18   11    8 1    
    19   10    9 1    
    20   24    9 1    
    21   25    9 1    
    22   13   10 1    
    23   26   10 1    
    24   27   10 1    
    25   12   11 1    
    26   28   11 1    
    27   29   11 1    
    28   13   12 1    
    29   30   12 1    
    30   31   12 1    
    31   14   13 1    
    32   32   13 1    
    33   15   14 2    
    34   16   14 1    
    35   18   15 1    
    36   17   16 1    
    37   18   17 2    
    38   19   18 1    
    39   20   19 2    
    40   23   19 1    
    41   21   20 1    
    42   33   20 1    
    43   22   21 2    
    44   34   21 1    
    45   23   22 1    
    46   35   22 1    
@<TRIPOS>SUBSTRUCTURE
     1 RF1237      1 GROUP   
@<TRIPOS>SET

