#    Name: 2jfh_LK1_1_INTS_M
#    Modification time : Tue Mar 25 20:40:37 2014

@<TRIPOS>MOLECULE
2jfh_LK1_1_INTS_M
   51     0     9     0     0
SMALL
NO_CHARGES


@<TRIPOS>ATOM
      1 NZ         26.0955   -6.5505   21.7925 N.4       2 LYC4        0.0000 
      2 NZ         25.6270   -5.3590   21.3890 N.4       8 LYL4        0.0000 
      3 NZ         26.5640   -7.7420   22.1960 N.4       5 LYP4        0.0000 
      4 N          26.0955   -6.5505   21.7925 N.am      1 SEC2        0.0000 
      5 N          25.6270   -5.3590   21.3890 N.am      7 SEL2        0.0000 
      6 N          26.5640   -7.7420   22.1960 N.am      4 SEP2        0.0000 
      7 NZ         25.9810   -6.8390   20.7445 N.4       2 LYC4        0.0000 
      8 NZ         25.3980   -5.9360   19.2930 N.4       8 LYL4        0.0000 
      9 CA         24.8225   -1.2960   21.7190 C.3       3 GLC5        0.0000 
     10 CA         25.4110   -2.6580   20.4150 C.3       9 GLL5        0.0000 
     11 CA         24.2340    0.0660   23.0230 C.3       6 GLP5        0.0000 
     12 CA         28.5140   -3.5615   19.8110 C.3       3 GLC5        0.0000 
     13 CA         26.7770   -2.5710   19.7860 C.3       9 GLL5        0.0000 
     14 CA         30.2510   -4.5520   19.8360 C.3       6 GLP5        0.0000 
     15 CA         28.2150   -1.7725   18.3840 C.3       3 GLC5        0.0000 
     16 CA         29.6530   -0.9740   16.9820 C.3       6 GLP5        0.0000 
     17 N          28.3300   -1.3990   22.6720 N.am      1 SEC2        0.0000 
     18 N          27.9500   -1.3150   21.3630 N.am      7 SEL2        0.0000 
     19 N          28.7100   -1.4830   23.9810 N.am      4 SEP2        0.0000 
     20 N          28.4385   -0.1275   21.9390 N.am      1 SEC2        0.0000 
     21 N          28.9270    1.0600   22.5150 N.am      4 SEP2        0.0000 
     22 N          28.5050    0.5295   19.4350 N.am      1 SEC2        0.0000 
     23 N          27.4870   -0.3600   19.4490 N.am      7 SEL2        0.0000 
     24 N          29.5230    1.4190   19.4210 N.am      4 SEP2        0.0000 
     25 CA         15.8290    3.2795   21.9020 C.3       3 GLC5        0.0000 
     26 CA         15.4310    1.5780   20.6070 C.3       9 GLL5        0.0000 
     27 CA         16.2270    4.9810   23.1970 C.3       6 GLP5        0.0000 
     28 CA         12.4090    2.1945   18.9510 C.3       3 GLC5        0.0000 
     29 CA         13.0040    1.1700   20.5780 C.3       9 GLL5        0.0000 
     30 CA         11.8140    3.2190   17.3240 C.3       6 GLP5        0.0000 
     31 CA         10.2530    0.8615   20.3695 C.3       3 GLC5        0.0000 
     32 CA         11.8530    1.2940   21.5410 C.3       9 GLL5        0.0000 
     33 CA          8.6530    0.4290   19.1980 C.3       6 GLP5        0.0000 
     34 CA         10.8765    3.1465   21.3915 C.3       3 GLC5        0.0000 
     35 CA          9.9000    4.9990   21.2420 C.3       6 GLP5        0.0000 
     36 CA         10.8005    1.2620   23.1125 C.3       3 GLC5        0.0000 
     37 CA          9.7480    1.2300   24.6840 C.3       6 GLP5        0.0000 
     38 CA         26.3490   -3.2352   22.0877 C.3       3 GLC5        0.0000 
     39 CA         26.6040   -3.8560   24.0750 C.3       6 GLP5        0.0000 
     40 CA         21.7272   -1.6880   21.7383 C.3       3 GLC5        0.0000 
     41 CA         20.5440   -3.0640   21.5230 C.3       9 GLL5        0.0000 
     42 CA         22.7710   -0.2490   22.6240 C.3       6 GLP5        0.0000 
     43 CA         21.0633   -0.9730   22.0898 C.3       3 GLC5        0.0000 
     44 CA         19.6630   -2.1230   22.0020 C.3       9 GLL5        0.0000 
     45 CA         17.1815   -1.7957   20.1415 C.3       3 GLC5        0.0000 
     46 CA         19.0480   -1.2710   21.1090 C.3       9 GLL5        0.0000 
     47 CA         15.7600   -2.7780   18.9250 C.3       6 GLP5        0.0000 
     48 CA         16.7102   -1.1347   19.5053 C.3       3 GLC5        0.0000 
     49 CA         17.5430    0.5350   20.7710 C.3       9 GLL5        0.0000 
     50 CA         17.6827   -2.1950   19.1113 C.3       3 GLC5        0.0000 
     51 CA         18.6650   -0.4600   18.8950 C.3       9 GLL5        0.0000 
@<TRIPOS>BOND
@<TRIPOS>SUBSTRUCTURE
     1 SEC2        4 GROUP        1 X    SEC  0     ROOT SEC X 2
     2 LYC4        1 GROUP        1 X    LYC  0     **** LYC X 4
     3 GLC5        9 GROUP        1 X    GLC  0     **** GLC X 6
     4 SEP2        6 GROUP        1 Y    SEP  0     ROOT SEP Y 9
     5 LYP4        3 GROUP        1 Y    LYP  0     **** LYP Y 11
     6 GLP5       11 GROUP        1 Y    GLP  0     **** GLP Y 13
     7 SEL2        5 GROUP        1 Z    SEL  0     ROOT SEL Z 16
     8 LYL4        2 GROUP        1 Z    LYL  0     **** LYL Z 18
     9 GLL5       10 GROUP        1 Z    GLL  0     **** GLL Z 20
@<TRIPOS>SET

