#    Name: 2jfh_LK1_1_ligand
#    Modification time : Tue Mar 25 20:40:37 2014

@<TRIPOS>MOLECULE
2jfh_LK1_1_ligand
   49    50     1     0     0
SMALL
NO_CHARGES


@<TRIPOS>ATOM
      1 O28        21.9100   -4.5900   18.4290 O.2       1 LK11441     0.0000 
      2 S11        21.8960   -4.2890   19.8140 S.o2      1 LK11441     0.0000 
      3 O27        21.6840   -5.4490   20.5860 O.2       1 LK11441     0.0000 
      4 N          23.2680   -3.6380   20.3080 N.am      1 LK11441     0.0000 
      5 CA         24.6290   -3.8380   19.8440 C.3       1 LK11441     0.0000 
      6 C          25.3050   -5.1450   20.2270 C.2       1 LK11441     0.0000 
      7 OXT        25.6270   -5.3590   21.3890 O.co2     1 LK11441     0.0000 
      8 O          25.3980   -5.9360   19.2930 O.co2     1 LK11441     0.0000 
      9 CB         25.4110   -2.6580   20.4150 C.3       1 LK11441     0.0000 
     10 CG         26.7770   -2.5710   19.7860 C.3       1 LK11441     0.0000 
     11 CD         27.4540   -1.3150   20.2360 C.2       1 LK11441     0.0000 
     12 OE2        27.9500   -1.3150   21.3630 O.co2     1 LK11441     0.0000 
     13 OE1        27.4870   -0.3600   19.4490 O.co2     1 LK11441     0.0000 
     14 C12        20.8230   -3.1900   20.1820 C.ar      1 LK11441     0.0000 
     15 C17        20.5440   -3.0640   21.5230 C.ar      1 LK11441     0.0000 
     16 C16        19.6630   -2.1230   22.0020 C.ar      1 LK11441     0.0000 
     17 C15        19.0480   -1.2710   21.1090 C.ar      1 LK11441     0.0000 
     18 C21        18.1580   -0.3560   21.6070 C.ar      1 LK11441     0.0000 
     19 C20        17.5430    0.5350   20.7710 C.ar      1 LK11441     0.0000 
     20 C19        17.7780    0.4820   19.4000 C.ar      1 LK11441     0.0000 
     21 C18        18.6650   -0.4600   18.8950 C.ar      1 LK11441     0.0000 
     22 C14        19.3190   -1.3500   19.7510 C.ar      1 LK11441     0.0000 
     23 C13        20.2190   -2.3190   19.2720 C.ar      1 LK11441     0.0000 
     24 O22        16.6610    1.4250   21.3000 O.3       1 LK11441     0.0000 
     25 C23        15.4310    1.5780   20.6070 C.3       1 LK11441     0.0000 
     26 C24        14.3090    0.8080   21.2630 C.3       1 LK11441     0.0000 
     27 C25        13.0040    1.1700   20.5780 C.3       1 LK11441     0.0000 
     28 C26        11.8530    1.2940   21.5410 C.3       1 LK11441     0.0000 
     29 H          23.1073   -2.9513   21.1108 H         1 LK11441     0.0000 
     30 H          24.6693   -3.7209   18.7556 H         1 LK11441     0.0000 
     31 H          25.5090   -2.7863   21.4936 H         1 LK11441     0.0000 
     32 H          24.8568   -1.7387   20.2220 H         1 LK11441     0.0000 
     33 H          26.6766   -2.5682   18.7017 H         1 LK11441     0.0000 
     34 H          27.3680   -3.4359   20.0834 H         1 LK11441     0.0000 
     35 H          21.0186   -3.7064   22.2020 H         1 LK11441     0.0000 
     36 H          19.4656   -2.0546   23.0055 H         1 LK11441     0.0000 
     37 H          17.9502   -0.3397   22.6236 H         1 LK11441     0.0000 
     38 H          17.3000    1.1331   18.7698 H         1 LK11441     0.0000 
     39 H          18.8449   -0.5059   17.8806 H         1 LK11441     0.0000 
     40 H          20.4240   -2.3810   18.2775 H         1 LK11441     0.0000 
     41 H          15.5120    1.2299   19.5574 H         1 LK11441     0.0000 
     42 H          15.1257    2.6426   20.5550 H         1 LK11441     0.0000 
     43 H          14.2502    1.0705   22.3120 H         1 LK11441     0.0000 
     44 H          14.4869   -0.2553   21.1605 H         1 LK11441     0.0000 
     45 H          12.7701    0.4009   19.8257 H         1 LK11441     0.0000 
     46 H          13.1349    2.1217   20.0401 H         1 LK11441     0.0000 
     47 H          11.6881    0.4401   22.0346 H         1 LK11441     0.0000 
     48 H          12.0178    2.0022   22.2275 H         1 LK11441     0.0000 
     49 H          11.0015    1.5315   21.0735 H         1 LK11441     0.0000 
@<TRIPOS>BOND
     1    2    1 2    
     2    3    2 2    
     3    4    2 am   
     4   14    2 1    
     5    5    4 1    
     6   29    4 1    
     7    6    5 1    
     8    9    5 1    
     9   30    5 1    
    10    7    6 ar   
    11    8    6 ar   
    12   10    9 1    
    13   31    9 1    
    14   32    9 1    
    15   11   10 1    
    16   33   10 1    
    17   34   10 1    
    18   12   11 ar   
    19   13   11 ar   
    20   15   14 ar   
    21   23   14 ar   
    22   16   15 ar   
    23   35   15 1    
    24   17   16 ar   
    25   36   16 1    
    26   18   17 ar   
    27   22   17 ar   
    28   19   18 ar   
    29   37   18 1    
    30   20   19 ar   
    31   24   19 1    
    32   21   20 ar   
    33   38   20 1    
    34   22   21 ar   
    35   39   21 1    
    36   23   22 ar   
    37   40   23 1    
    38   25   24 1    
    39   26   25 1    
    40   41   25 1    
    41   42   25 1    
    42   27   26 1    
    43   43   26 1    
    44   44   26 1    
    45   28   27 1    
    46   45   27 1    
    47   46   27 1    
    48   47   28 1    
    49   48   28 1    
    50   49   28 1    
@<TRIPOS>SUBSTRUCTURE
     1 LK11441     1 GROUP   
@<TRIPOS>SET

