#    Name: 3bi6_396_1_INTS_M
#    Modification time : Mon Mar 24 19:38:54 2014

@<TRIPOS>MOLECULE
3bi6_396_1_INTS_M
   66     0     9     0     0
SMALL
NO_CHARGES


@<TRIPOS>ATOM
      1 CA         11.2165   53.1655   19.2895 C.3       3 GLC5        0.0000 
      2 CA         10.2710   53.8660   17.6270 C.3       9 GLL5        0.0000 
      3 CA         12.1620   52.4650   20.9520 C.3       6 GLP5        0.0000 
      4 CA          5.1830   57.4050   19.4820 C.3       3 GLC5        0.0000 
      5 CA          6.4920   56.3350   18.3560 C.3       9 GLL5        0.0000 
      6 CA          3.8740   58.4750   20.6080 C.3       6 GLP5        0.0000 
      7 O           7.3710   56.9475   20.6795 O.2       1 ALC1        0.0000 
      8 O           6.4820   55.8060   19.7640 O.2       7 ALL1        0.0000 
      9 O           8.2600   58.0890   21.5950 O.2       4 ALP1        0.0000 
     10 CA          3.6140   55.7150   21.4655 C.3       3 GLC5        0.0000 
     11 CA          4.2680   54.0990   21.8720 C.3       9 GLL5        0.0000 
     12 CA          2.9600   57.3310   21.0590 C.3       6 GLP5        0.0000 
     13 O           8.0685   56.5675   21.8500 O.2       1 ALC1        0.0000 
     14 O           7.8770   55.0460   22.1050 O.2       7 ALL1        0.0000 
     15 CA          2.1330   55.2855   22.8810 C.3       3 GLC5        0.0000 
     16 CA          1.6110   53.2530   23.1430 C.3       9 GLL5        0.0000 
     17 CA          2.6550   57.3180   22.6190 C.3       6 GLP5        0.0000 
     18 CA          0.2330   54.1325   22.1245 C.3       3 GLC5        0.0000 
     19 CA         -1.1450   55.0120   21.1060 C.3       6 GLP5        0.0000 
     20 CA          0.6010   54.8615   24.1000 C.3       3 GLC5        0.0000 
     21 CA         -0.4090   56.4700   25.0570 C.3       6 GLP5        0.0000 
     22 N           8.3860   55.1075   26.8145 N.am      2 SEC2        0.0000 
     23 N           7.0940   54.6210   26.9820 N.am      8 SEL2        0.0000 
     24 N           9.6780   55.5940   26.6470 N.am      5 SEP2        0.0000 
     25 O           6.8795   55.0330   29.3350 O.2       1 ALC1        0.0000 
     26 O           5.9220   54.1090   28.8470 O.2       7 ALL1        0.0000 
     27 O           7.8370   55.9570   29.8230 O.2       4 ALP1        0.0000 
     28 N           3.6030   53.9360   31.6490 N.am      2 SEC2        0.0000 
     29 N           4.2240   53.5150   30.1690 N.am      8 SEL2        0.0000 
     30 N           2.9820   54.3570   33.1290 N.am      5 SEP2        0.0000 
     31 CA          0.7180   49.7435   29.2560 C.3       3 GLC5        0.0000 
     32 CA          0.9820   51.7630   28.6500 C.3       9 GLL5        0.0000 
     33 CA          0.4540   47.7240   29.8620 C.3       6 GLP5        0.0000 
     34 CA         -0.6030   54.9880   31.9260 C.3       3 GLC5        0.0000 
     35 CA          0.2630   53.7550   30.5640 C.3       9 GLL5        0.0000 
     36 CA         -1.4690   56.2210   33.2880 C.3       6 GLP5        0.0000 
     37 CA          1.3510   56.1755   27.7235 C.3       3 GLC5        0.0000 
     38 CA          1.8480   55.6100   29.6150 C.3       9 GLL5        0.0000 
     39 CA          0.8540   56.7410   25.8320 C.3       6 GLP5        0.0000 
     40 CA          3.2510   56.5660   28.6875 C.3       3 GLC5        0.0000 
     41 CA          4.6540   57.5220   27.7600 C.3       6 GLP5        0.0000 
     42 CA          3.2730   55.7985   31.0700 C.3       3 GLC5        0.0000 
     43 CA          4.6980   55.9870   32.5250 C.3       6 GLP5        0.0000 
     44 CA          8.9887   52.9500   19.4832 C.3       3 GLC5        0.0000 
     45 CA          8.8180   54.1060   18.1520 C.3       9 GLL5        0.0000 
     46 CA          8.4330   51.9140   21.0770 C.3       6 GLP5        0.0000 
     47 CA          5.0403   56.0247   22.7240 C.3       3 GLC5        0.0000 
     48 CA          6.5760   54.6950   22.4680 C.3       9 GLL5        0.0000 
     49 CA          4.0090   57.4670   23.4530 C.3       6 GLP5        0.0000 
     50 CA          7.3026   53.2219   21.9910 C.3       3 GLC5        0.0000 
     51 CA          6.2730   54.4770   23.8150 C.3       9 GLL5        0.0000 
     52 CA          4.4073   55.7819   23.5403 C.3       3 GLC5        0.0000 
     53 CA          3.8720   55.5972   24.3942 C.3       3 GLC5        0.0000 
     54 CA          4.4070   53.8820   25.4720 C.3       9 GLL5        0.0000 
     55 CA          4.4689   55.6480   27.3833 C.3       3 GLC5        0.0000 
     56 CA          1.7365   55.0440   26.2470 C.3       3 GLC5        0.0000 
     57 CA          2.6030   53.2880   27.5900 C.3       9 GLL5        0.0000 
     58 CA          0.3930   50.1635   30.6595 C.3       3 GLC5        0.0000 
     59 CA         -0.3350   52.4840   30.6170 C.3       9 GLL5        0.0000 
     60 CA          0.9480   48.3110   31.1890 C.3       6 GLP5        0.0000 
     61 CA         -1.5522   53.6168   29.9185 C.3       3 GLC5        0.0000 
     62 CA          0.0110   51.5480   29.6430 C.3       9 GLL5        0.0000 
     63 CA         -3.1550   54.3480   29.4900 C.3       6 GLP5        0.0000 
     64 CA         -0.2462   55.6427   29.5265 C.3       3 GLC5        0.0000 
     65 CA          1.2410   53.9970   29.5670 C.3       9 GLL5        0.0000 
     66 CA         -2.0370   56.4820   29.4620 C.3       6 GLP5        0.0000 
@<TRIPOS>BOND
@<TRIPOS>SUBSTRUCTURE
     1 ALC1        7 GROUP        1 X    ALC  0     ROOT ALC X 1
     2 SEC2       22 GROUP        1 X    SEC  0     **** SEC X 2
     3 GLC5        1 GROUP        1 X    GLC  0     **** GLC X 6
     4 ALP1        9 GROUP        1 Y    ALP  0     ROOT ALP Y 8
     5 SEP2       24 GROUP        1 Y    SEP  0     **** SEP Y 9
     6 GLP5        3 GROUP        1 Y    GLP  0     **** GLP Y 13
     7 ALL1        8 GROUP        1 Z    ALL  0     ROOT ALL Z 15
     8 SEL2       23 GROUP        1 Z    SEL  0     **** SEL Z 16
     9 GLL5        2 GROUP        1 Z    GLL  0     **** GLL Z 20
@<TRIPOS>SET

