#    Name: 3bi6_396_1_ligand
#    Modification time : Mon Mar 24 19:38:54 2014

@<TRIPOS>MOLECULE
3bi6_396_1_ligand
   63    68     1     0     0
SMALL
NO_CHARGES


@<TRIPOS>ATOM
      1 C26         9.2390   55.1870   16.1260 C.3       1 396901      0.0000 
      2 C27        10.0350   53.8930   16.1360 C.3       1 396901      0.0000 
      3 C29        10.2710   53.8660   17.6270 C.3       1 396901      0.0000 
      4 C25         8.8180   54.1060   18.1520 C.3       1 396901      0.0000 
      5 N4          8.1880   54.9940   17.1540 N.4       1 396901      0.0000 
      6 C24         7.8490   56.3400   17.6940 C.3       1 396901      0.0000 
      7 C23         6.4920   56.3350   18.3560 C.3       1 396901      0.0000 
      8 N3          6.4820   55.8060   19.7640 N.am      1 396901      0.0000 
      9 C22         5.7830   54.7200   20.0250 C.2       1 396901      0.0000 
     10 O4          5.1090   54.1820   19.1670 O.2       1 396901      0.0000 
     11 C20         5.5670   54.4700   21.5220 C.ar      1 396901      0.0000 
     12 C18         4.2680   54.0990   21.8720 C.ar      1 396901      0.0000 
     13 C19         6.5760   54.6950   22.4680 C.ar      1 396901      0.0000 
     14 O3          7.8770   55.0460   22.1050 O.3       1 396901      0.0000 
     15 C17         6.2730   54.4770   23.8150 C.ar      1 396901      0.0000 
     16 C15         4.9770   54.1120   24.2190 C.ar      1 396901      0.0000 
     17 C16         3.9860   53.8990   23.2380 C.ar      1 396901      0.0000 
     18 N2          2.8740   53.5520   23.8590 N.pl3     1 396901      0.0000 
     19 C21         1.6110   53.2530   23.1430 C.3       1 396901      0.0000 
     20 C14         3.0630   53.5730   25.1990 C.ar      1 396901      0.0000 
     21 C1          2.2070   53.2390   26.2690 C.ar      1 396901      0.0000 
     22 C13         4.4070   53.8820   25.4720 C.ar      1 396901      0.0000 
     23 C4          4.8480   53.9420   26.8300 C.ar      1 396901      0.0000 
     24 C5          6.0590   54.2060   27.5050 C.2       1 396901      0.0000 
     25 O1          7.0940   54.6210   26.9820 O.2       1 396901      0.0000 
     26 N1          5.9220   54.1090   28.8470 N.am      1 396901      0.0000 
     27 C6          4.6770   53.7350   29.0600 C.2       1 396901      0.0000 
     28 O2          4.2240   53.5150   30.1690 O.2       1 396901      0.0000 
     29 C3          3.9400   53.6360   27.8620 C.ar      1 396901      0.0000 
     30 C2          2.6030   53.2880   27.5900 C.ar      1 396901      0.0000 
     31 C7          1.6330   53.0010   28.6100 C.ar      1 396901      0.0000 
     32 C12         0.9820   51.7630   28.6500 C.ar      1 396901      0.0000 
     33 C11         0.0110   51.5480   29.6430 C.ar      1 396901      0.0000 
     34 C10        -0.3350   52.4840   30.6170 C.ar      1 396901      0.0000 
     35 C9          0.2630   53.7550   30.5640 C.ar      1 396901      0.0000 
     36 C8          1.2410   53.9970   29.5670 C.ar      1 396901      0.0000 
     37 CL5         1.8480   55.6100   29.6150 Cl        1 396901      0.0000 
     38 H           8.8024   55.3257   15.1585 H         1 396901      0.0000 
     39 H           9.8833   56.0001   16.3901 H         1 396901      0.0000 
     40 H          10.9290   54.0225   15.6308 H         1 396901      0.0000 
     41 H           9.4307   53.1025   15.8513 H         1 396901      0.0000 
     42 H          10.8733   54.6681   17.9253 H         1 396901      0.0000 
     43 H          10.5893   52.9190   17.9386 H         1 396901      0.0000 
     44 H           8.8855   54.5762   19.1085 H         1 396901      0.0000 
     45 H           8.3244   53.1603   18.2029 H         1 396901      0.0000 
     46 H           7.3501   54.5325   16.7109 H         1 396901      0.0000 
     47 H           7.8485   57.0775   16.8828 H         1 396901      0.0000 
     48 H           8.6035   56.6480   18.4273 H         1 396901      0.0000 
     49 H           5.7932   55.7339   17.7375 H         1 396901      0.0000 
     50 H           6.0879   57.3689   18.3538 H         1 396901      0.0000 
     51 H           7.0286   56.3348   20.4363 H         1 396901      0.0000 
     52 H           3.5493   53.9763   21.1741 H         1 396901      0.0000 
     53 H           7.0117   54.5851   24.5285 H         1 396901      0.0000 
     54 H           1.2294   52.9420   26.0375 H         1 396901      0.0000 
     55 H           6.6054   54.2820   29.4938 H         1 396901      0.0000 
     56 H           1.2037   51.0360   27.9793 H         1 396901      0.0000 
     57 H          -0.4857   50.6170   29.6482 H         1 396901      0.0000 
     58 H          -1.0007   52.2585   31.3473 H         1 396901      0.0000 
     59 H           0.0062   54.4807   31.2170 H         1 396901      0.0000 
     60 H           1.7165   52.4883   22.5073 H         1 396901      0.0000 
     61 H           0.8747   53.0098   23.7745 H         1 396901      0.0000 
     62 H           1.2924   54.0362   22.6090 H         1 396901      0.0000 
     63 H           7.8251   56.0143   21.8609 H         1 396901      0.0000 
@<TRIPOS>BOND
     1    2    1 1    
     2    5    1 1    
     3   38    1 1    
     4   39    1 1    
     5    3    2 1    
     6   40    2 1    
     7   41    2 1    
     8    4    3 1    
     9   42    3 1    
    10   43    3 1    
    11    5    4 1    
    12   44    4 1    
    13   45    4 1    
    14    6    5 1    
    15   46    5 1    
    16    7    6 1    
    17   47    6 1    
    18   48    6 1    
    19    8    7 1    
    20   49    7 1    
    21   50    7 1    
    22    9    8 am   
    23   51    8 1    
    24   10    9 2    
    25   11    9 1    
    26   12   11 ar   
    27   13   11 ar   
    28   17   12 ar   
    29   52   12 1    
    30   14   13 1    
    31   15   13 ar   
    32   63   14 1    
    33   16   15 ar   
    34   53   15 1    
    35   17   16 ar   
    36   22   16 1    
    37   18   17 1    
    38   19   18 1    
    39   20   18 1    
    40   60   19 1    
    41   61   19 1    
    42   62   19 1    
    43   21   20 ar   
    44   22   20 ar   
    45   30   21 ar   
    46   54   21 1    
    47   23   22 ar   
    48   24   23 1    
    49   29   23 ar   
    50   25   24 2    
    51   26   24 am   
    52   27   26 am   
    53   55   26 1    
    54   28   27 2    
    55   29   27 1    
    56   30   29 ar   
    57   31   30 1    
    58   32   31 ar   
    59   36   31 ar   
    60   33   32 ar   
    61   56   32 1    
    62   34   33 ar   
    63   57   33 1    
    64   35   34 ar   
    65   58   34 1    
    66   36   35 ar   
    67   59   35 1    
    68   37   36 1    
@<TRIPOS>SUBSTRUCTURE
     1 396901      1 GROUP   
@<TRIPOS>SET

