#    Name: 4guy_KLJ_1_INTS_M
#    Modification time : Mon Mar 24 23:49:15 2014

@<TRIPOS>MOLECULE
4guy_KLJ_1_INTS_M
   49     0    12     0     0
SMALL
NO_CHARGES


@<TRIPOS>ATOM
      1 CA          1.0540   -6.5720    7.3700 C.3       4 GLC5        0.0000 
      2 CA          2.8880   -5.6060    6.6180 C.3      12 GLL5        0.0000 
      3 CA         -0.7800   -7.5380    8.1220 C.3       8 GLP5        0.0000 
      4 Zn          2.7600   -2.9930    4.3000 Zn        3 ZIC7        0.0000 
      5 Zn          1.3340   -4.7330    3.5610 Zn       11 ZIL7        0.0000 
      6 Zn          4.1860   -1.2530    5.0390 Zn        7 ZIP7        0.0000 
      7 O           0.1935   -2.0205    6.0105 O.2       1 ALC1        0.0000 
      8 O           1.2140   -1.6560    5.3090 O.2       9 ALL1        0.0000 
      9 O          -0.8270   -2.3850    6.7120 O.2       5 ALP1        0.0000 
     10 Zn          3.4865   -1.8025    4.4395 Zn        3 ZIC7        0.0000 
     11 Zn          2.7870   -2.3520    3.8400 Zn       11 ZIL7        0.0000 
     12 CA          2.7970   -5.8675   10.0025 C.3       4 GLC5        0.0000 
     13 CA          4.1560   -6.4220    8.5670 C.3      12 GLL5        0.0000 
     14 CA          1.4380   -5.3130   11.4380 C.3       8 GLP5        0.0000 
     15 N          -0.9815   -6.0770    5.9355 N.am      2 SEC2        0.0000 
     16 N           0.2630   -5.3130    5.6130 N.am     10 SEL2        0.0000 
     17 N          -2.2260   -6.8410    6.2580 N.am      6 SEP2        0.0000 
     18 N          -0.7345   -4.9345    6.8170 N.am      2 SEC2        0.0000 
     19 N          -1.7320   -4.5560    8.0210 N.am      6 SEP2        0.0000 
     20 CA          4.5070   -6.2190   10.8850 C.3       4 GLC5        0.0000 
     21 CA          5.3540   -6.8220    9.1910 C.3      12 GLL5        0.0000 
     22 CA          3.6600   -5.6160   12.5790 C.3       8 GLP5        0.0000 
     23 Zn          3.1570   -1.1765    5.6240 Zn        3 ZIC7        0.0000 
     24 Zn          2.1280   -1.1000    6.2090 Zn       11 ZIL7        0.0000 
     25 O           2.1430   -1.4345    7.4505 O.2       1 ALC1        0.0000 
     26 O           2.1280   -1.1000    6.2090 O.2       9 ALL1        0.0000 
     27 O           2.1580   -1.7690    8.6920 O.2       5 ALP1        0.0000 
     28 CA          6.1315   -5.5840    4.5620 C.3       4 GLC5        0.0000 
     29 CA          5.3870   -5.9960    6.5110 C.3      12 GLL5        0.0000 
     30 CA          6.8760   -5.1720    2.6130 C.3       8 GLP5        0.0000 
     31 CA          5.8235   -7.4360    4.9490 C.3       4 GLC5        0.0000 
     32 CA          6.2600   -8.8760    3.3870 C.3       8 GLP5        0.0000 
     33 CA         10.3425   -5.9805    8.7405 C.3       4 GLC5        0.0000 
     34 CA          8.9750   -7.3960    8.4680 C.3      12 GLL5        0.0000 
     35 CA         11.7100   -4.5650    9.0130 C.3       8 GLP5        0.0000 
     36 CA         -0.9465   -3.8555    2.8045 C.3       4 GLC5        0.0000 
     37 CA          0.6730   -3.4480    3.7220 C.3      12 GLL5        0.0000 
     38 CA         -2.5660   -4.2630    1.8870 C.3       8 GLP5        0.0000 
     39 CA          4.3530   -4.0560    7.2205 C.3       4 GLC5        0.0000 
     40 CA          5.1720   -2.2920    7.5130 C.3       8 GLP5        0.0000 
     41 CA          4.4335   -8.3585    8.0454 C.3       4 GLC5        0.0000 
     42 CA          4.1060  -10.1920    7.5440 C.3       8 GLP5        0.0000 
     43 CA          5.9318   -4.9210    9.2488 C.3       4 GLC5        0.0000 
     44 CA          6.1980   -3.1300    9.8200 C.3       8 GLP5        0.0000 
     45 CA          6.0762   -4.5295    7.5702 C.3       4 GLC5        0.0000 
     46 CA          6.5900   -6.3880    7.1240 C.3      12 GLL5        0.0000 
     47 CA          6.1640   -2.8670    8.3230 C.3       8 GLP5        0.0000 
     48 CA          5.7395   -8.2387    7.0263 C.3       4 GLC5        0.0000 
     49 CA          5.4940  -10.1820    6.8970 C.3       8 GLP5        0.0000 
@<TRIPOS>BOND
@<TRIPOS>SUBSTRUCTURE
     1 ALC1        7 GROUP        1 X    ALC  0     ROOT ALC X 1
     2 SEC2       15 GROUP        1 X    SEC  0     **** SEC X 2
     3 ZIC7        4 GROUP        1 X    ZIC  0     **** ZIC X 5
     4 GLC5        1 GROUP        1 X    GLC  0     **** GLC X 6
     5 ALP1        9 GROUP        1 Y    ALP  0     ROOT ALP Y 8
     6 SEP2       17 GROUP        1 Y    SEP  0     **** SEP Y 9
     7 ZIP7        6 GROUP        1 Y    ZIP  0     **** ZIP Y 12
     8 GLP5        3 GROUP        1 Y    GLP  0     **** GLP Y 13
     9 ALL1        8 GROUP        1 Z    ALL  0     ROOT ALL Z 15
    10 SEL2       16 GROUP        1 Z    SEL  0     **** SEL Z 16
    11 ZIL7        5 GROUP        1 Z    ZIL  0     **** ZIL Z 19
    12 GLL5        2 GROUP        1 Z    GLL  0     **** GLL Z 20
@<TRIPOS>SET

