#    Name: 4guy_KLJ_1_ligand
#    Modification time : Mon Mar 24 23:49:15 2014

@<TRIPOS>MOLECULE
4guy_KLJ_1_ligand
   35    35     1     0     0
SMALL
NO_CHARGES


@<TRIPOS>ATOM
      1 C1          2.8880   -5.6060    6.6180 C.3       1 KLJ306      0.0000 
      2 N1          1.3340   -4.7330    3.5610 N.pl3     1 KLJ306      0.0000 
      3 O1          7.7360   -7.1950    9.1460 O.3       1 KLJ306      0.0000 
      4 S1          1.2100   -5.8740    4.6900 S.o2      1 KLJ306      0.0000 
      5 C2          4.1800   -6.0340    7.2380 C.ar      1 KLJ306      0.0000 
      6 N2          1.2140   -1.6560    5.3090 N.am      1 KLJ306      0.0000 
      7 O2          2.7870   -2.3520    3.8400 O.2       1 KLJ306      0.0000 
      8 C3          4.1560   -6.4220    8.5670 C.ar      1 KLJ306      0.0000 
      9 O3          0.2630   -5.3130    5.6130 O.2       1 KLJ306      0.0000 
     10 C4          5.3540   -6.8220    9.1910 C.ar      1 KLJ306      0.0000 
     11 O4          2.1280   -1.1000    6.2090 O.3       1 KLJ306      0.0000 
     12 C5          6.5760   -6.8020    8.4760 C.ar      1 KLJ306      0.0000 
     13 O5          0.6820   -7.0950    4.1390 O.2       1 KLJ306      0.0000 
     14 C6          5.3870   -5.9960    6.5110 C.ar      1 KLJ306      0.0000 
     15 C7          6.5900   -6.3880    7.1240 C.ar      1 KLJ306      0.0000 
     16 C8          2.6960   -6.2750    5.2700 C.3       1 KLJ306      0.0000 
     17 C9          8.9750   -7.3960    8.4680 C.3       1 KLJ306      0.0000 
     18 C10         1.6490   -2.4230    4.3020 C.2       1 KLJ306      0.0000 
     19 C11         0.6730   -3.4480    3.7220 C.3       1 KLJ306      0.0000 
     20 H           2.8822   -4.5221    6.4817 H         1 KLJ306      0.0000 
     21 H           2.0549   -5.8756    7.2713 H         1 KLJ306      0.0000 
     22 H           1.8820   -4.9732    2.7716 H         1 KLJ306      0.0000 
     23 H           0.2061   -1.4585    5.4443 H         1 KLJ306      0.0000 
     24 H           3.2839   -6.4220    9.0991 H         1 KLJ306      0.0000 
     25 H           5.3444   -7.1297   10.1676 H         1 KLJ306      0.0000 
     26 H           5.3860   -5.6829    5.5374 H         1 KLJ306      0.0000 
     27 H           7.4636   -6.3752    6.6032 H         1 KLJ306      0.0000 
     28 H           2.7100   -7.3409    5.3550 H         1 KLJ306      0.0000 
     29 H           3.4060   -5.9229    4.5521 H         1 KLJ306      0.0000 
     30 H          -0.1814   -3.5261    4.4013 H         1 KLJ306      0.0000 
     31 H           0.3111   -3.0674    2.7620 H         1 KLJ306      0.0000 
     32 H           9.7016   -7.6733    9.0966 H         1 KLJ306      0.0000 
     33 H           8.9047   -8.1077    7.7691 H         1 KLJ306      0.0000 
     34 H           9.2863   -6.5640    8.0088 H         1 KLJ306      0.0000 
     35 H           1.8946   -1.5003    7.0952 H         1 KLJ306      0.0000 
@<TRIPOS>BOND
     1    5    1 1    
     2   16    1 1    
     3   20    1 1    
     4   21    1 1    
     5    4    2 1    
     6   19    2 1    
     7   22    2 1    
     8   12    3 1    
     9   17    3 1    
    10    9    4 2    
    11   13    4 2    
    12   16    4 1    
    13    8    5 ar   
    14   14    5 ar   
    15   11    6 1    
    16   18    6 am   
    17   23    6 1    
    18   18    7 2    
    19   10    8 ar   
    20   24    8 1    
    21   12   10 ar   
    22   25   10 1    
    23   35   11 1    
    24   15   12 ar   
    25   15   14 ar   
    26   26   14 1    
    27   27   15 1    
    28   28   16 1    
    29   29   16 1    
    30   32   17 1    
    31   33   17 1    
    32   34   17 1    
    33   19   18 1    
    34   30   19 1    
    35   31   19 1    
@<TRIPOS>SUBSTRUCTURE
     1 KLJ306      1 GROUP   
@<TRIPOS>SET

