#    Name: 3n8x_NIM_1_INTS_M
#    Modification time : Tue Mar 25 01:04:41 2014

@<TRIPOS>MOLECULE
3n8x_NIM_1_INTS_M
   49     0     6     0     0
SMALL
NO_CHARGES


@<TRIPOS>ATOM
      1 CA        -17.6010  -48.6930    1.0805 C.3       2 GLC5        0.0000 
      2 CA        -19.4860  -48.1350    1.6650 C.3       6 GLL5        0.0000 
      3 CA        -15.7160  -49.2510    0.4960 C.3       4 GLP5        0.0000 
      4 N         -20.8110  -45.8045    4.8120 N.am      1 SEC2        0.0000 
      5 N         -20.0980  -46.8380    4.3600 N.am      5 SEL2        0.0000 
      6 N         -21.5240  -44.7710    5.2640 N.am      3 SEP2        0.0000 
      7 N         -20.9185  -45.8480    3.6695 N.am      1 SEC2        0.0000 
      8 N         -21.7390  -44.8580    2.9790 N.am      3 SEP2        0.0000 
      9 CA        -17.6440  -49.9210    4.5875 C.3       2 GLC5        0.0000 
     10 CA        -17.6800  -48.0840    4.4920 C.3       6 GLL5        0.0000 
     11 CA        -17.6080  -51.7580    4.6830 C.3       4 GLP5        0.0000 
     12 CA        -17.1035  -46.7985    3.1235 C.3       2 GLC5        0.0000 
     13 CA        -16.5270  -45.5130    1.7550 C.3       4 GLP5        0.0000 
     14 CA        -15.9930  -49.0425    4.7715 C.3       2 GLC5        0.0000 
     15 CA        -14.3060  -50.0010    5.0510 C.3       4 GLP5        0.0000 
     16 CA        -26.4845  -53.5935    2.2875 C.3       2 GLC5        0.0000 
     17 CA        -24.3410  -53.1370    2.6830 C.3       6 GLL5        0.0000 
     18 CA        -28.6280  -54.0500    1.8920 C.3       4 GLP5        0.0000 
     19 CA        -21.4600  -53.0390    1.3555 C.3       2 GLC5        0.0000 
     20 CA        -22.8290  -51.5170    1.7100 C.3       6 GLL5        0.0000 
     21 CA        -20.0910  -54.5610    1.0010 C.3       4 GLP5        0.0000 
     22 CA        -23.5795  -49.8805    0.5430 C.3       2 GLC5        0.0000 
     23 CA        -24.3300  -48.2440   -0.6240 C.3       4 GLP5        0.0000 
     24 CA        -21.1677  -49.0450   -1.2603 C.3       2 GLC5        0.0000 
     25 CA        -19.5230  -49.3110   -0.4360 C.3       6 GLL5        0.0000 
     26 CA        -22.6150  -48.1980   -2.4270 C.3       4 GLP5        0.0000 
     27 CA        -20.9185  -47.3855    0.2650 C.3       2 GLC5        0.0000 
     28 CA        -19.3040  -48.1430    0.2870 C.3       6 GLL5        0.0000 
     29 CA        -22.4420  -46.6320   -0.4460 C.3       4 GLP5        0.0000 
     30 CA        -21.3250  -48.5065    3.2490 C.3       2 GLC5        0.0000 
     31 CA        -22.9700  -48.3030    4.4910 C.3       4 GLP5        0.0000 
     32 CA        -18.8008  -50.8145    3.3390 C.3       2 GLC5        0.0000 
     33 CA        -19.8740  -49.2850    2.3490 C.3       6 GLL5        0.0000 
     34 CA        -17.9459  -49.6995   -0.3709 C.3       2 GLC5        0.0000 
     35 CA        -19.9180  -50.4730    0.2490 C.3       6 GLL5        0.0000 
     36 CA        -16.2260  -49.7990   -0.8290 C.3       4 GLP5        0.0000 
     37 CA        -19.0214  -51.8713    0.3089 C.3       2 GLC5        0.0000 
     38 CA        -18.1260  -53.5680   -0.1560 C.3       4 GLP5        0.0000 
     39 CA        -23.0998  -50.5787    3.5580 C.3       2 GLC5        0.0000 
     40 CA        -21.7580  -52.0580    2.4260 C.3       6 GLL5        0.0000 
     41 CA        -23.9060  -49.3700    5.0480 C.3       4 GLP5        0.0000 
     42 CA        -21.3328  -53.8533    2.0601 C.3       2 GLC5        0.0000 
     43 CA        -23.2750  -53.6880    3.3920 C.3       6 GLL5        0.0000 
     44 CA        -24.0678  -50.9823    3.6545 C.3       2 GLC5        0.0000 
     45 CA        -24.1180  -52.0520    1.8390 C.3       6 GLL5        0.0000 
     46 CA        -23.4789  -52.8967    4.8121 C.3       2 GLC5        0.0000 
     47 CA        -23.4710  -52.5160    6.6180 C.3       4 GLP5        0.0000 
     48 CA        -25.2241  -51.3959    2.5867 C.3       2 GLC5        0.0000 
     49 CA        -26.9190  -50.7360    3.1880 C.3       4 GLP5        0.0000 
@<TRIPOS>BOND
@<TRIPOS>SUBSTRUCTURE
     1 SEC2        4 GROUP        1 X    SEC  0     ROOT SEC X 2
     2 GLC5        1 GROUP        1 X    GLC  0     **** GLC X 6
     3 SEP2        6 GROUP        1 Y    SEP  0     ROOT SEP Y 9
     4 GLP5        3 GROUP        1 Y    GLP  0     **** GLP Y 13
     5 SEL2        5 GROUP        1 Z    SEL  0     ROOT SEL Z 16
     6 GLL5        2 GROUP        1 Z    GLL  0     **** GLL Z 20
@<TRIPOS>SET

