#    Name: 3n8x_NIM_1_ligand
#    Modification time : Tue Mar 25 01:04:41 2014

@<TRIPOS>MOLECULE
3n8x_NIM_1_ligand
   33    34     1     0     0
SMALL
NO_CHARGES


@<TRIPOS>ATOM
      1 O4        -19.6820  -50.4130   -2.5820 O.2       1 NIM701      0.0000 
      2 N2        -19.3270  -49.3020   -1.7690 N.pl3     1 NIM701      0.0000 
      3 O3        -18.7010  -48.1830   -2.4240 O.2       1 NIM701      0.0000 
      4 C5        -19.5230  -49.3110   -0.4360 C.ar      1 NIM701      0.0000 
      5 C4        -19.3040  -48.1430    0.2870 C.ar      1 NIM701      0.0000 
      6 C3        -19.4860  -48.1350    1.6650 C.ar      1 NIM701      0.0000 
      7 C2        -19.8740  -49.2850    2.3490 C.ar      1 NIM701      0.0000 
      8 N1        -20.0550  -49.2900    3.6660 N.pl3     1 NIM701      0.0000 
      9 S1        -19.4460  -48.1520    4.6650 S.o2      1 NIM701      0.0000 
     10 O1        -20.0980  -46.8380    4.3600 O.2       1 NIM701      0.0000 
     11 O2        -19.7850  -48.4830    6.0820 O.2       1 NIM701      0.0000 
     12 C1        -17.6800  -48.0840    4.4920 C.3       1 NIM701      0.0000 
     13 C6        -19.9180  -50.4730    0.2490 C.ar      1 NIM701      0.0000 
     14 C7        -20.1130  -50.4570    1.6410 C.ar      1 NIM701      0.0000 
     15 O5        -20.4810  -51.5800    2.3460 O.3       1 NIM701      0.0000 
     16 C8        -21.7580  -52.0580    2.4260 C.ar      1 NIM701      0.0000 
     17 C13       -21.9900  -53.1480    3.2670 C.ar      1 NIM701      0.0000 
     18 C12       -23.2750  -53.6880    3.3920 C.ar      1 NIM701      0.0000 
     19 C11       -24.3410  -53.1370    2.6830 C.ar      1 NIM701      0.0000 
     20 C10       -24.1180  -52.0520    1.8390 C.ar      1 NIM701      0.0000 
     21 C9        -22.8290  -51.5170    1.7100 C.ar      1 NIM701      0.0000 
     22 H         -19.0077  -47.2863   -0.1980 H         1 NIM701      0.0000 
     23 H         -19.3305  -47.2577    2.1948 H         1 NIM701      0.0000 
     24 H         -20.5884  -49.9956    4.2003 H         1 NIM701      0.0000 
     25 H         -20.0663  -51.3462   -0.2748 H         1 NIM701      0.0000 
     26 H         -21.2108  -53.5587    3.7999 H         1 NIM701      0.0000 
     27 H         -23.4308  -54.4948    4.0102 H         1 NIM701      0.0000 
     28 H         -25.2827  -53.5282    2.7825 H         1 NIM701      0.0000 
     29 H         -24.8952  -51.6411    1.3095 H         1 NIM701      0.0000 
     30 H         -22.6716  -50.7170    1.0806 H         1 NIM701      0.0000 
     31 H         -17.2746  -47.3926    5.0900 H         1 NIM701      0.0000 
     32 H         -17.2505  -48.9576    4.7208 H         1 NIM701      0.0000 
     33 H         -17.4068  -47.8591    3.5567 H         1 NIM701      0.0000 
@<TRIPOS>BOND
     1    2    1 2    
     2    3    2 2    
     3    4    2 1    
     4    5    4 ar   
     5   13    4 ar   
     6    6    5 ar   
     7   22    5 1    
     8    7    6 ar   
     9   23    6 1    
    10    8    7 1    
    11   14    7 ar   
    12    9    8 1    
    13   24    8 1    
    14   10    9 2    
    15   11    9 2    
    16   12    9 1    
    17   31   12 1    
    18   32   12 1    
    19   33   12 1    
    20   14   13 ar   
    21   25   13 1    
    22   15   14 1    
    23   16   15 1    
    24   17   16 ar   
    25   21   16 ar   
    26   18   17 ar   
    27   26   17 1    
    28   19   18 ar   
    29   27   18 1    
    30   20   19 ar   
    31   28   19 1    
    32   21   20 ar   
    33   29   20 1    
    34   30   21 1    
@<TRIPOS>SUBSTRUCTURE
     1 NIM701      1 GROUP   
@<TRIPOS>SET

