#    Name: 3V0L_1_CAVITY_N1_6.mol2
#    Modification time : Tue Mar 11 09:45:39 2014

@<TRIPOS>MOLECULE
3V0L_1_CAVITY_N1_6.mol2
  103     0     6     0     0
SMALL
NO_CHARGES


@<TRIPOS>ATOM
      1 CZ         11.3820  -18.5823   -9.7869 C.ar      4 PHE5        0.0000 
      2 O           9.3701  -18.2304  -10.3601 O.2       1 ALA2        0.0000 
      3 CZ          8.5278  -17.0087  -10.5789 C.ar      4 PHE5        0.0000 
      4 DU         12.4632  -15.6495   -7.8558 H         6 CUB7        0.0000 
      5 CZ         12.9783  -18.9627   -7.7726 C.ar      4 PHE5        0.0000 
      6 DU         12.1360  -17.7410   -7.9914 H         6 CUB7        0.0000 
      7 DU         11.2936  -16.5193   -8.2102 H         6 CUB7        0.0000 
      8 CZ         10.4513  -15.2975   -8.4290 C.ar      4 PHE5        0.0000 
      9 CZ         11.8087  -19.8325   -8.1271 C.ar      4 PHE5        0.0000 
     10 CZ         10.9664  -18.6108   -8.3458 C.ar      4 PHE5        0.0000 
     11 DU         10.1241  -17.3891   -8.5646 H         6 CUB7        0.0000 
     12 CZ          9.2818  -16.1673   -8.7834 C.ar      4 PHE5        0.0000 
     13 O           8.9546  -18.2589   -8.9191 O.2       1 ALA2        0.0000 
     14 CZ          8.1122  -17.0371   -9.1379 C.ar      4 PHE5        0.0000 
     15 O           7.7850  -19.1287   -9.2735 O.2       1 ALA2        0.0000 
     16 CA          6.9427  -17.9070   -9.4923 C.3       5 GLY6        0.0000 
     17 NZ         15.5562  -13.0685   -5.3514 N.2       3 LYS4        0.0000 
     18 DU         13.5443  -12.7166   -5.9246 H         6 CUB7        0.0000 
     19 DU         12.7020  -11.4948   -6.1434 H         6 CUB7        0.0000 
     20 OD1        13.2171  -14.8081   -6.0603 O.3       2 ASP3        0.0000 
     21 DU         12.3748  -13.5864   -6.2791 H         6 CUB7        0.0000 
     22 OD1        12.8899  -16.8996   -6.1960 O.3       2 ASP3        0.0000 
     23 OD1        12.0476  -15.6779   -6.4147 O.3       2 ASP3        0.0000 
     24 DU         11.2053  -14.4562   -6.6335 H         6 CUB7        0.0000 
     25 DU         10.3630  -13.2344   -6.8523 H         6 CUB7        0.0000 
     26 NZ         12.5627  -18.9912   -6.3316 N.2       3 LYS4        0.0000 
     27 NZ         11.7204  -17.7694   -6.5504 N.2       3 LYS4        0.0000 
     28 DU         10.8781  -16.5477   -6.7692 H         6 CUB7        0.0000 
     29 CZ         10.0358  -15.3260   -6.9880 C.ar      4 PHE5        0.0000 
     30 CZ          9.1934  -14.1042   -7.2068 C.ar      4 PHE5        0.0000 
     31 CZ         11.3932  -19.8610   -6.6861 C.ar      4 PHE5        0.0000 
     32 CZ         10.5509  -18.6392   -6.9048 C.ar      4 PHE5        0.0000 
     33 DU          9.7085  -17.4175   -7.1236 H         6 CUB7        0.0000 
     34 CZ          8.8662  -16.1958   -7.3424 C.ar      4 PHE5        0.0000 
     35 CZ          9.3813  -19.5091   -7.2593 C.ar      4 PHE5        0.0000 
     36 DU          8.5390  -18.2873   -7.4781 H         6 CUB7        0.0000 
     37 CZ          7.6967  -17.0656   -7.6968 C.ar      4 PHE5        0.0000 
     38 N           7.3695  -19.1571   -7.8325 N.2       1 ALA2        0.0000 
     39 CA         15.1407  -13.0969   -3.9104 C.3       5 GLY6        0.0000 
     40 NZ         14.2983  -11.8752   -4.1292 N.2       3 LYS4        0.0000 
     41 NZ         13.4560  -10.6535   -4.3480 N.2       3 LYS4        0.0000 
     42 OD1        13.9711  -13.9667   -4.2649 O.3       2 ASP3        0.0000 
     43 DU         13.1288  -12.7450   -4.4836 H         6 CUB7        0.0000 
     44 DU         12.2865  -11.5233   -4.7024 H         6 CUB7        0.0000 
     45 DU         11.4442  -10.3015   -4.9212 H         6 CUB7        0.0000 
     46 OD1        12.8016  -14.8365   -4.6193 O.3       2 ASP3        0.0000 
     47 DU         11.9593  -13.6148   -4.8381 H         6 CUB7        0.0000 
     48 DU         11.1169  -12.3931   -5.0569 H         6 CUB7        0.0000 
     49 N          10.2746  -11.1714   -5.2757 N.2       1 ALA2        0.0000 
     50 OD1        11.6321  -15.7064   -4.9737 O.3       2 ASP3        0.0000 
     51 DU         10.7897  -14.4846   -5.1925 H         6 CUB7        0.0000 
     52 N           9.9474  -13.2629   -5.4113 N.2       1 ALA2        0.0000 
     53 N           9.1051  -12.0412   -5.6301 N.2       1 ALA2        0.0000 
     54 NZ         11.3048  -17.7979   -5.1094 N.2       3 LYS4        0.0000 
     55 NZ         10.4625  -16.5762   -5.3282 N.2       3 LYS4        0.0000 
     56 NZ          9.6202  -15.3544   -5.5470 N.2       3 LYS4        0.0000 
     57 N           8.7779  -14.1327   -5.7657 N.2       1 ALA2        0.0000 
     58 N           7.9356  -12.9110   -5.9845 N.2       1 ALA2        0.0000 
     59 O          10.9776  -19.8894   -5.2450 O.2       1 ALA2        0.0000 
     60 NZ         10.1353  -18.6677   -5.4638 N.2       3 LYS4        0.0000 
     61 NZ          9.2930  -17.4460   -5.6826 N.2       3 LYS4        0.0000 
     62 NZ          8.4507  -16.2242   -5.9014 N.2       3 LYS4        0.0000 
     63 NZ          7.6083  -15.0025   -6.1202 N.2       3 LYS4        0.0000 
     64 NZ          8.9658  -19.5375   -5.8183 N.2       3 LYS4        0.0000 
     65 CA          8.1235  -18.3158   -6.0371 C.3       5 GLY6        0.0000 
     66 NZ          7.2811  -17.0940   -6.2558 N.2       3 LYS4        0.0000 
     67 N           6.9539  -19.1856   -6.3915 N.2       1 ALA2        0.0000 
     68 CA         14.7251  -13.1254   -2.4694 C.3       5 GLY6        0.0000 
     69 CA         13.8828  -11.9037   -2.6882 C.3       5 GLY6        0.0000 
     70 NZ         13.0405  -10.6819   -2.9070 N.2       3 LYS4        0.0000 
     71 OD1        13.5556  -13.9952   -2.8238 O.3       2 ASP3        0.0000 
     72 DU         12.7132  -12.7735   -3.0426 H         6 CUB7        0.0000 
     73 DU         11.8709  -11.5517   -3.2614 H         6 CUB7        0.0000 
     74 OD1        12.3860  -14.8650   -3.1783 O.3       2 ASP3        0.0000 
     75 DU         11.5437  -13.6433   -3.3971 H         6 CUB7        0.0000 
     76 N          10.7014  -12.4215   -3.6159 N.2       1 ALA2        0.0000 
     77 N           9.8591  -11.1998   -3.8346 N.2       1 ALA2        0.0000 
     78 NZ         11.2165  -15.7348   -3.5327 N.2       3 LYS4        0.0000 
     79 DU         10.3742  -14.5131   -3.7515 H         6 CUB7        0.0000 
     80 N           9.5319  -13.2913   -3.9703 N.2       1 ALA2        0.0000 
     81 NZ         10.8893  -17.8263   -3.6684 N.2       3 LYS4        0.0000 
     82 NZ         10.0470  -16.6046   -3.8872 N.2       3 LYS4        0.0000 
     83 NZ          9.2046  -15.3829   -4.1060 N.2       3 LYS4        0.0000 
     84 N           8.3623  -14.1612   -4.3247 N.2       1 ALA2        0.0000 
     85 O           9.7198  -18.6961   -4.0228 O.2       1 ALA2        0.0000 
     86 NZ          8.8774  -17.4744   -4.2416 N.2       3 LYS4        0.0000 
     87 NZ          8.5502  -19.5660   -4.3773 N.2       3 LYS4        0.0000 
     88 NZ          7.7079  -18.3442   -4.5960 N.2       3 LYS4        0.0000 
     89 CA         14.3095  -13.1538   -1.0284 C.3       5 GLY6        0.0000 
     90 N          13.4672  -11.9321   -1.2472 N.2       1 ALA2        0.0000 
     91 CA         13.1400  -14.0236   -1.3828 C.3       5 GLY6        0.0000 
     92 CA         12.2977  -12.8019   -1.6016 C.3       5 GLY6        0.0000 
     93 CA         11.4554  -11.5802   -1.8204 C.3       5 GLY6        0.0000 
     94 CA         11.9705  -14.8934   -1.7373 C.3       5 GLY6        0.0000 
     95 DU         11.1282  -13.6717   -1.9561 H         6 CUB7        0.0000 
     96 N          10.2858  -12.4500   -2.1748 N.2       1 ALA2        0.0000 
     97 CA         10.8009  -15.7633   -2.0917 C.3       5 GLY6        0.0000 
     98 N           9.9586  -14.5415   -2.3105 N.2       1 ALA2        0.0000 
     99 O           9.6314  -16.6331   -2.4462 O.2       1 ALA2        0.0000 
    100 CA         11.8821  -12.8304   -0.1606 C.3       5 GLY6        0.0000 
    101 CA         10.7126  -13.7002   -0.5151 C.3       5 GLY6        0.0000 
    102 CA          9.8703  -12.4784   -0.7338 C.3       5 GLY6        0.0000 
    103 CA          9.5431  -14.5700   -0.8695 C.3       5 GLY6        0.0000 
@<TRIPOS>BOND
@<TRIPOS>SUBSTRUCTURE
     1 ALA2        2 GROUP   
     2 ASP3       20 GROUP   
     3 LYS4       17 GROUP   
     4 PHE5        1 GROUP   
     5 GLY6       16 GROUP   
     6 CUB7        4 GROUP   
@<TRIPOS>SET

