#    Name: 3v0l_2GW_1_INTS_M
#    Modification time : Mon Mar 24 23:49:17 2014

@<TRIPOS>MOLECULE
3v0l_2GW_1_INTS_M
   94     0    12     0     0
SMALL
NO_CHARGES


@<TRIPOS>ATOM
      1 CA         14.7120  -24.5710  -11.8810 C.3       4 GLC5        0.0000 
      2 CA         15.2410  -22.5590  -12.4330 C.3      12 GLL5        0.0000 
      3 CA         14.1830  -26.5830  -11.3290 C.3       8 GLP5        0.0000 
      4 CA         17.7175  -21.3585  -10.1990 C.3       4 GLC5        0.0000 
      5 CA         16.3550  -22.4810  -10.1640 C.3      12 GLL5        0.0000 
      6 CA         19.0800  -20.2360  -10.2340 C.3       8 GLP5        0.0000 
      7 CA         14.2940  -22.5700  -10.1140 C.3       4 GLC5        0.0000 
      8 CA         12.2330  -22.6590  -10.0640 C.3       8 GLP5        0.0000 
      9 CA         17.1340  -20.8370   -9.1460 C.3       4 GLC5        0.0000 
     10 CA         15.8640  -22.3680   -8.8580 C.3      12 GLL5        0.0000 
     11 CA         18.4040  -19.3060   -9.4340 C.3       8 GLP5        0.0000 
     12 CA         14.1465  -22.5975   -8.7715 C.3       4 GLC5        0.0000 
     13 CA         12.4290  -22.8270   -8.6850 C.3       8 GLP5        0.0000 
     14 CA         14.7070  -24.1485   -8.9140 C.3       4 GLC5        0.0000 
     15 CA         13.5500  -25.9290   -8.9700 C.3       8 GLP5        0.0000 
     16 O          19.4880  -24.3540   -9.5840 O.2       1 ALC1        0.0000 
     17 O          18.1810  -23.8830   -9.3720 O.2       9 ALL1        0.0000 
     18 O          20.7950  -24.8250   -9.7960 O.2       5 ALP1        0.0000 
     19 N          19.2840  -25.3030   -7.3675 N.am      2 SEC2        0.0000 
     20 N          18.1900  -24.4000   -7.2090 N.am     10 SEL2        0.0000 
     21 N          20.3780  -26.2060   -7.5260 N.am      6 SEP2        0.0000 
     22 CA         16.2690  -24.8800   -5.2855 C.3       4 GLC5        0.0000 
     23 CA         16.0750  -23.0200   -6.4440 C.3      12 GLL5        0.0000 
     24 CA         16.4630  -26.7400   -4.1270 C.3       8 GLP5        0.0000 
     25 CA         14.2520  -22.9235   -7.5645 C.3       4 GLC5        0.0000 
     26 N          17.3210  -21.6590   -3.0115 N.am      2 SEC2        0.0000 
     27 N          16.8510  -22.6610   -4.2680 N.am     10 SEL2        0.0000 
     28 N          17.7910  -20.6570   -1.7550 N.am      6 SEP2        0.0000 
     29 O          17.7515  -23.5945   -4.1055 O.2       1 ALC1        0.0000 
     30 O          16.8510  -22.6610   -4.2680 O.2       9 ALL1        0.0000 
     31 O          18.6520  -24.5280   -3.9430 O.2       5 ALP1        0.0000 
     32 CA         17.3460  -20.0705   -6.8730 C.3       4 GLC5        0.0000 
     33 CA         16.1410  -20.8510   -5.6880 C.3      12 GLL5        0.0000 
     34 CA         18.5510  -19.2900   -8.0580 C.3       8 GLP5        0.0000 
     35 CA         15.5630  -19.9805   -3.7090 C.3       4 GLC5        0.0000 
     36 CA         14.9850  -19.1100   -1.7300 C.3       8 GLP5        0.0000 
     37 N          17.1690  -20.3370   -3.1980 N.am      2 SEC2        0.0000 
     38 N          16.5470  -20.0170   -4.6410 N.am     10 SEL2        0.0000 
     39 Zn         15.1290  -17.2395   -5.2740 Zn        3 ZIC7        0.0000 
     40 Zn         15.3400  -17.8240   -6.2090 Zn       11 ZIL7        0.0000 
     41 Zn         14.9180  -16.6550   -4.3390 Zn        7 ZIP7        0.0000 
     42 N          16.5705  -18.1080   -9.3565 N.am      2 SEC2        0.0000 
     43 N          15.5810  -17.8160   -8.6690 N.am     10 SEL2        0.0000 
     44 N          17.5600  -18.4000  -10.0440 N.am      6 SEP2        0.0000 
     45 Zn         14.1020  -16.1255   -5.0045 Zn        3 ZIC7        0.0000 
     46 Zn         13.2860  -15.5960   -5.6700 Zn       11 ZIL7        0.0000 
     47 CA          7.1995  -17.0670   -8.2875 C.3       4 GLC5        0.0000 
     48 CA          8.0260  -18.9310   -7.6400 C.3      12 GLL5        0.0000 
     49 CA          6.3730  -15.2030   -8.9350 C.3       8 GLP5        0.0000 
     50 CA          7.1295  -19.3670   -9.4920 C.3       4 GLC5        0.0000 
     51 CA          6.2330  -19.8030  -11.3440 C.3       8 GLP5        0.0000 
     52 N           8.3650  -20.7085   -9.1690 N.am      2 SEC2        0.0000 
     53 N           7.7580  -20.1910   -8.0890 N.am     10 SEL2        0.0000 
     54 N           8.9720  -21.2260  -10.2490 N.am      6 SEP2        0.0000 
     55 O           7.5655  -21.1775   -7.0970 O.2       1 ALC1        0.0000 
     56 O           7.7580  -20.1910   -8.0890 O.2       9 ALL1        0.0000 
     57 O           7.3730  -22.1640   -6.1050 O.2       5 ALP1        0.0000 
     58 O           7.7130  -20.9230   -5.4280 O.2       1 ALC1        0.0000 
     59 O           8.0530  -19.6820   -4.7510 O.2       9 ALL1        0.0000 
     60 O           7.9130  -21.3735   -4.4705 O.2       1 ALC1        0.0000 
     61 O           7.7730  -23.0650   -4.1900 O.2       5 ALP1        0.0000 
     62 N          10.5250  -21.2715   -3.7135 N.am      2 SEC2        0.0000 
     63 N          10.4190  -20.0060   -3.2790 N.am     10 SEL2        0.0000 
     64 N          10.6310  -22.5370   -4.1480 N.am      6 SEP2        0.0000 
     65 O          11.6985  -20.1170   -2.8895 O.2       1 ALC1        0.0000 
     66 O          10.4190  -20.0060   -3.2790 O.2       9 ALL1        0.0000 
     67 O          12.9780  -20.2280   -2.5000 O.2       5 ALP1        0.0000 
     68 O          11.9300  -19.1635   -3.3065 O.2       1 ALC1        0.0000 
     69 O          13.4410  -18.3210   -3.3340 O.2       5 ALP1        0.0000 
     70 CA          8.8310  -18.4625   -2.7040 C.3       4 GLC5        0.0000 
     71 CA         10.2190  -17.8650   -4.2880 C.3      12 GLL5        0.0000 
     72 CA          7.4430  -19.0600   -1.1200 C.3       8 GLP5        0.0000 
     73 CA         11.0695  -17.6130   -2.3240 C.3       4 GLC5        0.0000 
     74 CA         11.9200  -17.3610   -0.3600 C.3       8 GLP5        0.0000 
     75 O          12.3000  -17.8065   -3.3455 O.2       1 ALC1        0.0000 
     76 O          11.1590  -17.2920   -3.3570 O.2       9 ALL1        0.0000 
     77 CA         12.8427  -21.1222  -13.0580 C.3       4 GLC5        0.0000 
     78 CA         14.7380  -19.7840  -12.3850 C.3      12 GLL5        0.0000 
     79 CA         11.1380  -22.0750  -13.1800 C.3       8 GLP5        0.0000 
     80 CA         13.0305  -22.1590  -13.0770 C.3       4 GLC5        0.0000 
     81 CA         14.6050  -21.9270  -13.5150 C.3      12 GLL5        0.0000 
     82 CA         17.9510  -21.4062   -6.7298 C.3       4 GLC5        0.0000 
     83 CA         19.4270  -20.2400   -7.4480 C.3       8 GLP5        0.0000 
     84 CA         18.2765  -21.4480   -4.7282 C.3       4 GLC5        0.0000 
     85 CA         16.8750  -22.1250   -5.5790 C.3      12 GLL5        0.0000 
     86 CA         20.0450  -21.4080   -3.8230 C.3       8 GLP5        0.0000 
     87 CA         12.8180  -21.5903   -6.8915 C.3       4 GLC5        0.0000 
     88 CA         14.6900  -21.2460   -5.7130 C.3      12 GLL5        0.0000 
     89 CA         11.4220  -22.4300   -7.7510 C.3       8 GLP5        0.0000 
     90 CA          9.4410  -20.3810   -7.6778 C.3       4 GLC5        0.0000 
     91 CA          9.2640  -18.8190   -6.7390 C.3      12 GLL5        0.0000 
     92 CA         10.2370  -21.8870   -8.1660 C.3       8 GLP5        0.0000 
     93 CA         10.0450  -20.6770   -6.5857 C.3       4 GLC5        0.0000 
     94 CA          9.2930  -19.6850   -5.4680 C.3      12 GLL5        0.0000 
@<TRIPOS>BOND
@<TRIPOS>SUBSTRUCTURE
     1 ALC1       16 GROUP        1 X    ALC  0     ROOT ALC X 1
     2 SEC2       19 GROUP        1 X    SEC  0     **** SEC X 2
     3 ZIC7       39 GROUP        1 X    ZIC  0     **** ZIC X 5
     4 GLC5        1 GROUP        1 X    GLC  0     **** GLC X 6
     5 ALP1       18 GROUP        1 Y    ALP  0     ROOT ALP Y 8
     6 SEP2       21 GROUP        1 Y    SEP  0     **** SEP Y 9
     7 ZIP7       41 GROUP        1 Y    ZIP  0     **** ZIP Y 12
     8 GLP5        3 GROUP        1 Y    GLP  0     **** GLP Y 13
     9 ALL1       17 GROUP        1 Z    ALL  0     ROOT ALL Z 15
    10 SEL2       20 GROUP        1 Z    SEL  0     **** SEL Z 16
    11 ZIL7       40 GROUP        1 Z    ZIL  0     **** ZIL Z 19
    12 GLL5        2 GROUP        1 Z    GLL  0     **** GLL Z 20
@<TRIPOS>SET

