#    Name: 3v0l_2GW_1_ligand
#    Modification time : Mon Mar 24 23:49:17 2014

@<TRIPOS>MOLECULE
3v0l_2GW_1_ligand
   68    71     1     0     0
SMALL
NO_CHARGES


@<TRIPOS>ATOM
      1 CAP        15.3570  -20.4350  -11.3140 C.ar      1 2GW450      0.0000 
      2 CAN        14.7380  -19.7840  -12.3850 C.ar      1 2GW450      0.0000 
      3 CAM        14.3570  -20.5550  -13.4870 C.ar      1 2GW450      0.0000 
      4 CAO        14.6050  -21.9270  -13.5150 C.ar      1 2GW450      0.0000 
      5 CAQ        15.2410  -22.5590  -12.4330 C.ar      1 2GW450      0.0000 
      6 CBA        15.6270  -21.7760  -11.3580 C.ar      1 2GW450      0.0000 
      7 CBB        16.3550  -22.4810  -10.1640 C.2       1 2GW450      0.0000 
      8 CAR        15.8640  -22.3680   -8.8580 C.2       1 2GW450      0.0000 
      9 CBC        17.5230  -23.2650  -10.3790 C.2       1 2GW450      0.0000 
     10 OAA        18.1230  -23.4500  -11.6340 O.2       1 2GW450      0.0000 
     11 NAU        18.1810  -23.8830   -9.3720 N.am      1 2GW450      0.0000 
     12 CBD        17.6580  -23.7590   -8.1150 C.2       1 2GW450      0.0000 
     13 OAB        18.1900  -24.4000   -7.2090 O.2       1 2GW450      0.0000 
     14 NBN        16.5500  -23.0680   -7.8580 N.am      1 2GW450      0.0000 
     15 C1'        16.0750  -23.0200   -6.4440 C.3       1 2GW450      0.0000 
     16 O4'        14.7190  -22.4630   -6.5000 O.3       1 2GW450      0.0000 
     17 C2'        16.8750  -22.1250   -5.5790 C.3       1 2GW450      0.0000 
     18 O2'        16.8510  -22.6610   -4.2680 O.3       1 2GW450      0.0000 
     19 C3'        16.1410  -20.8510   -5.6880 C.3       1 2GW450      0.0000 
     20 O3'        16.5470  -20.0170   -4.6410 O.3       1 2GW450      0.0000 
     21 C4'        14.6900  -21.2460   -5.7130 C.3       1 2GW450      0.0000 
     22 C5'        13.7380  -20.2550   -6.3510 C.3       1 2GW450      0.0000 
     23 O5'        14.2570  -19.6070   -7.5100 O.3       1 2GW450      0.0000 
     24 PBO        14.6780  -18.1330   -7.4900 P.3       1 2GW450      0.0000 
     25 OAK        15.3400  -17.8240   -6.2090 O.co2     1 2GW450      0.0000 
     26 OAC        15.5810  -17.8160   -8.6690 O.co2     1 2GW450      0.0000 
     27 OAZ        13.3270  -17.2750   -7.7030 O.3       1 2GW450      0.0000 
     28 PBP        12.5520  -16.2650   -6.7540 P.3       1 2GW450      0.0000 
     29 OAL        13.2860  -15.5960   -5.6700 O.co2     1 2GW450      0.0000 
     30 OAD        11.7860  -15.3230   -7.6380 O.co2     1 2GW450      0.0000 
     31 O1         11.4710  -17.3220   -6.1980 O.3       1 2GW450      0.0000 
     32 C1         10.3290  -17.0520   -5.5490 C.3       1 2GW450      0.0000 
     33 O5          9.2490  -17.4660   -6.4520 O.3       1 2GW450      0.0000 
     34 C5          9.2640  -18.8190   -6.7390 C.3       1 2GW450      0.0000 
     35 C6          8.0260  -18.9310   -7.6400 C.3       1 2GW450      0.0000 
     36 O6          7.7580  -20.1910   -8.0890 O.3       1 2GW450      0.0000 
     37 C4          9.2930  -19.6850   -5.4680 C.3       1 2GW450      0.0000 
     38 O4          8.0530  -19.6820   -4.7510 O.3       1 2GW450      0.0000 
     39 C3         10.4130  -19.2490   -4.5430 C.3       1 2GW450      0.0000 
     40 O3         10.4190  -20.0060   -3.2790 O.3       1 2GW450      0.0000 
     41 C2         10.2190  -17.8650   -4.2880 C.3       1 2GW450      0.0000 
     42 O2         11.1590  -17.2920   -3.3570 O.3       1 2GW450      0.0000 
     43 H          15.6122  -19.8787  -10.4736 H         1 2GW450      0.0000 
     44 H          14.5711  -18.7870  -12.3633 H         1 2GW450      0.0000 
     45 H          13.8880  -20.1034  -14.2865 H         1 2GW450      0.0000 
     46 H          14.3220  -22.4848  -14.3317 H         1 2GW450      0.0000 
     47 H          15.4078  -23.5580  -12.4480 H         1 2GW450      0.0000 
     48 H          15.0561  -21.8100   -8.6475 H         1 2GW450      0.0000 
     49 H          19.0317  -24.4203   -9.5360 H         1 2GW450      0.0000 
     50 H          16.0323  -24.0036   -6.0381 H         1 2GW450      0.0000 
     51 H          17.8389  -22.0291   -5.9867 H         1 2GW450      0.0000 
     52 H          16.3876  -20.4325   -6.6675 H         1 2GW450      0.0000 
     53 H          14.3760  -21.4846   -4.7161 H         1 2GW450      0.0000 
     54 H          13.4542  -19.5103   -5.5686 H         1 2GW450      0.0000 
     55 H          12.7927  -20.8011   -6.5865 H         1 2GW450      0.0000 
     56 H          10.1999  -16.0192   -5.3077 H         1 2GW450      0.0000 
     57 H          10.1256  -19.0560   -7.3617 H         1 2GW450      0.0000 
     58 H           8.1854  -18.1964   -8.4773 H         1 2GW450      0.0000 
     59 H           7.1745  -18.4893   -7.0518 H         1 2GW450      0.0000 
     60 H           9.5349  -20.7163   -5.7891 H         1 2GW450      0.0000 
     61 H          11.3497  -19.4025   -5.0687 H         1 2GW450      0.0000 
     62 H           9.1966  -17.6840   -3.9036 H         1 2GW450      0.0000 
     63 H          17.7831  -22.9837   -4.1033 H         1 2GW450      0.0000 
     64 H          16.2130  -19.1079   -4.8900 H         1 2GW450      0.0000 
     65 H           8.1321  -20.7999   -7.3895 H         1 2GW450      0.0000 
     66 H           7.5628  -20.4897   -5.0786 H         1 2GW450      0.0000 
     67 H          11.3780  -20.0301   -2.9965 H         1 2GW450      0.0000 
     68 H          11.7862  -18.0373   -3.1309 H         1 2GW450      0.0000 
@<TRIPOS>BOND
     1    2    1 ar   
     2    6    1 ar   
     3   43    1 1    
     4    3    2 ar   
     5   44    2 1    
     6    4    3 ar   
     7   45    3 1    
     8    5    4 ar   
     9   46    4 1    
    10    6    5 ar   
    11   47    5 1    
    12    7    6 1    
    13    8    7 2    
    14    9    7 1    
    15   14    8 1    
    16   48    8 1    
    17   10    9 2    
    18   11    9 1    
    19   12   11 1    
    20   49   11 1    
    21   13   12 2    
    22   14   12 1    
    23   15   14 1    
    24   16   15 1    
    25   17   15 1    
    26   50   15 1    
    27   21   16 1    
    28   18   17 1    
    29   19   17 1    
    30   51   17 1    
    31   63   18 1    
    32   20   19 1    
    33   21   19 1    
    34   52   19 1    
    35   64   20 1    
    36   22   21 1    
    37   53   21 1    
    38   23   22 1    
    39   54   22 1    
    40   55   22 1    
    41   24   23 1    
    42   25   24 ar   
    43   26   24 ar   
    44   27   24 1    
    45   28   27 1    
    46   29   28 ar   
    47   30   28 ar   
    48   31   28 1    
    49   32   31 1    
    50   33   32 1    
    51   41   32 1    
    52   56   32 1    
    53   34   33 1    
    54   35   34 1    
    55   37   34 1    
    56   57   34 1    
    57   36   35 1    
    58   58   35 1    
    59   59   35 1    
    60   65   36 1    
    61   38   37 1    
    62   39   37 1    
    63   60   37 1    
    64   66   38 1    
    65   40   39 1    
    66   41   39 1    
    67   61   39 1    
    68   67   40 1    
    69   42   41 1    
    70   62   41 1    
    71   68   42 1    
@<TRIPOS>SUBSTRUCTURE
     1 2GW450      1 GROUP   
@<TRIPOS>SET

