#    Name: 1xtu_CTP_11_INTS_M
#    Modification time : Tue Mar 25 10:38:16 2014

@<TRIPOS>MOLECULE
1xtu_CTP_11_INTS_M
   65     0    12     0     0
SMALL
NO_CHARGES


@<TRIPOS>ATOM
      1 N          18.2885   -4.9320   -5.7590 N.am      2 SEC2        0.0000 
      2 N          17.1160   -3.8740   -5.2040 N.am     10 SEL2        0.0000 
      3 N          19.4610   -5.9900   -6.3140 N.am      6 SEP2        0.0000 
      4 N          18.2680   -4.5770   -4.6645 N.am      2 SEC2        0.0000 
      5 N          19.4200   -5.2800   -4.1250 N.am      6 SEP2        0.0000 
      6 CA         15.0955   -0.8005   -2.9355 C.3       4 GLC5        0.0000 
      7 CA         15.9960   -1.7720   -4.6080 C.3      12 GLL5        0.0000 
      8 CA         14.1950    0.1710   -1.2630 C.3       8 GLP5        0.0000 
      9 N          18.3330   -5.3205   -6.8475 N.am      2 SEC2        0.0000 
     10 N          17.2050   -4.6510   -7.3810 N.am     10 SEL2        0.0000 
     11 O          16.7800   -1.7250   -2.2950 O.2       1 ALC1        0.0000 
     12 O          17.0670   -3.1360   -2.9170 O.2       9 ALL1        0.0000 
     13 O          16.4930   -0.3140   -1.6730 O.2       5 ALP1        0.0000 
     14 O          17.5805   -3.8830   -2.0100 O.2       1 ALC1        0.0000 
     15 O          18.0940   -4.6300   -1.1030 O.2       5 ALP1        0.0000 
     16 CA         17.3270   -1.0110   -7.9775 C.3       4 GLC5        0.0000 
     17 CA         15.7440   -2.4320   -8.4930 C.3      12 GLL5        0.0000 
     18 CA         18.9100    0.4100   -7.4620 C.3       8 GLP5        0.0000 
     19 O          13.2070   -4.6270  -10.1520 O.2       1 ALC1        0.0000 
     20 O          14.3680   -3.4380  -10.1810 O.2       9 ALL1        0.0000 
     21 O          12.0460   -5.8160  -10.1230 O.2       5 ALP1        0.0000 
     22 CA         11.8935   -1.4955   -8.0780 C.3       4 GLC5        0.0000 
     23 CA         13.5550   -1.6660   -8.7030 C.3      12 GLL5        0.0000 
     24 CA         10.2320   -1.3250   -7.4530 C.3       8 GLP5        0.0000 
     25 CA         15.0325   -0.9450  -11.5340 C.3       4 GLC5        0.0000 
     26 CA         14.5200   -0.5900   -9.3820 C.3      12 GLL5        0.0000 
     27 CA         15.5450   -1.3000  -13.6860 C.3       8 GLP5        0.0000 
     28 N          11.7095   -0.3540   -8.7440 N.am      2 SEC2        0.0000 
     29 N          12.4030   -1.6930   -9.5380 N.am     10 SEL2        0.0000 
     30 N          11.0160    0.9850   -7.9500 N.am      6 SEP2        0.0000 
     31 O          11.6560   -2.8320   -9.6185 O.2       1 ALC1        0.0000 
     32 O          12.4030   -1.6930   -9.5380 O.2       9 ALL1        0.0000 
     33 O          10.9090   -3.9710   -9.6990 O.2       5 ALP1        0.0000 
     34 N          15.7155    1.7650   -7.1340 N.am      2 SEC2        0.0000 
     35 N          14.8800    1.7840   -8.3570 N.am     10 SEL2        0.0000 
     36 N          16.5510    1.7460   -5.9110 N.am      6 SEP2        0.0000 
     37 NZ         15.2150    2.6775   -6.1770 N.4       3 LYC4        0.0000 
     38 NZ         13.8790    3.6090   -6.4430 N.4      11 LYL4        0.0000 
     39 NZ         16.5510    1.7460   -5.9110 N.4       7 LYP4        0.0000 
     40 N          15.2150    2.6775   -6.1770 N.am      2 SEC2        0.0000 
     41 N          13.8790    3.6090   -6.4430 N.am     10 SEL2        0.0000 
     42 NZ         12.0330    6.3510  -10.1305 N.4       3 LYC4        0.0000 
     43 NZ         13.2170    5.9360  -10.0180 N.4      11 LYL4        0.0000 
     44 NZ         10.8490    6.7660  -10.2430 N.4       7 LYP4        0.0000 
     45 N          12.0330    6.3510  -10.1305 N.am      2 SEC2        0.0000 
     46 N          13.2170    5.9360  -10.0180 N.am     10 SEL2        0.0000 
     47 N          10.8490    6.7660  -10.2430 N.am      6 SEP2        0.0000 
     48 N          11.9350    4.8390  -12.5070 N.am      2 SEC2        0.0000 
     49 N          11.4350    4.1940  -10.9870 N.am     10 SEL2        0.0000 
     50 N          12.4350    5.4840  -14.0270 N.am      6 SEP2        0.0000 
     51 N          11.1420    5.4800  -10.6150 N.am      2 SEC2        0.0000 
     52 NZ         11.1930    1.2915   -9.1665 N.4       3 LYC4        0.0000 
     53 NZ         11.3700    1.5980  -10.3830 N.4      11 LYL4        0.0000 
     54 NZ         11.0160    0.9850   -7.9500 N.4       7 LYP4        0.0000 
     55 N          11.1930    1.2915   -9.1665 N.am      2 SEC2        0.0000 
     56 N          11.3700    1.5980  -10.3830 N.am     10 SEL2        0.0000 
     57 N          12.4300    2.4285  -14.3475 N.am      2 SEC2        0.0000 
     58 N          12.4070    2.3960  -12.6860 N.am     10 SEL2        0.0000 
     59 N          12.4530    2.4610  -16.0090 N.am      6 SEP2        0.0000 
     60 N          12.4210    3.9400  -13.3565 N.am      2 SEC2        0.0000 
     61 CA         16.8903   -0.0997   -5.3630 C.3       4 GLC5        0.0000 
     62 CA         15.6750   -1.6250   -6.0260 C.3      12 GLL5        0.0000 
     63 CA         17.9450    1.4990   -5.4090 C.3       8 GLP5        0.0000 
     64 CA         15.9862   -2.7750  -10.5388 C.3       4 GLC5        0.0000 
     65 CA         16.9190   -2.8880  -12.4020 C.3       8 GLP5        0.0000 
@<TRIPOS>BOND
@<TRIPOS>SUBSTRUCTURE
     1 ALC1       11 GROUP        1 X    ALC  0     ROOT ALC X 1
     2 SEC2        1 GROUP        1 X    SEC  0     **** SEC X 2
     3 LYC4       37 GROUP        1 X    LYC  0     **** LYC X 4
     4 GLC5        6 GROUP        1 X    GLC  0     **** GLC X 6
     5 ALP1       13 GROUP        1 Y    ALP  0     ROOT ALP Y 8
     6 SEP2        3 GROUP        1 Y    SEP  0     **** SEP Y 9
     7 LYP4       39 GROUP        1 Y    LYP  0     **** LYP Y 11
     8 GLP5        8 GROUP        1 Y    GLP  0     **** GLP Y 13
     9 ALL1       12 GROUP        1 Z    ALL  0     ROOT ALL Z 15
    10 SEL2        2 GROUP        1 Z    SEL  0     **** SEL Z 16
    11 LYL4       38 GROUP        1 Z    LYL  0     **** LYL Z 18
    12 GLL5        7 GROUP        1 Z    GLL  0     **** GLL Z 20
@<TRIPOS>SET

