#    Name: 1xtu_CTP_11_ligand
#    Modification time : Tue Mar 25 10:38:16 2014

@<TRIPOS>MOLECULE
1xtu_CTP_11_ligand
   41    42     1     0     0
SMALL
NO_CHARGES


@<TRIPOS>ATOM
      1 N1         16.0910   -2.6070   -6.9400 N.am      1 CTP4260     0.0000 
      2 C2         16.8150   -3.7500   -6.5770 C.2       1 CTP4260     0.0000 
      3 N3         17.1160   -3.8740   -5.2040 N.2       1 CTP4260     0.0000 
      4 C4         16.7040   -2.8920   -4.2580 C.2       1 CTP4260     0.0000 
      5 C5         15.9960   -1.7720   -4.6080 C.2       1 CTP4260     0.0000 
      6 C6         15.6750   -1.6250   -6.0260 C.2       1 CTP4260     0.0000 
      7 O2         17.2050   -4.6510   -7.3810 O.2       1 CTP4260     0.0000 
      8 N4         17.0670   -3.1360   -2.9170 N.pl3     1 CTP4260     0.0000 
      9 C1'        15.7440   -2.4320   -8.4930 C.3       1 CTP4260     0.0000 
     10 C2'        14.3630   -2.8920   -8.8580 C.3       1 CTP4260     0.0000 
     11 O2'        14.3680   -3.4380  -10.1810 O.3       1 CTP4260     0.0000 
     12 C3'        13.5550   -1.6660   -8.7030 C.3       1 CTP4260     0.0000 
     13 C4'        14.5200   -0.5900   -9.3820 C.3       1 CTP4260     0.0000 
     14 O4'        15.8730   -1.0100   -8.8220 O.3       1 CTP4260     0.0000 
     15 O3'        12.4030   -1.6930   -9.5380 O.3       1 CTP4260     0.0000 
     16 C5'        13.9890    0.9080   -9.1560 C.3       1 CTP4260     0.0000 
     17 O5'        14.8800    1.7840   -8.3570 O.3       1 CTP4260     0.0000 
     18 PA         14.3370    3.4850   -7.9750 P.3       1 CTP4260     0.0000 
     19 O1A        13.8790    3.6090   -6.4430 O.co2     1 CTP4260     0.0000 
     20 O2A        15.4260    4.4690   -8.6420 O.co2     1 CTP4260     0.0000 
     21 O3A        12.9390    3.4780   -8.9680 O.3       1 CTP4260     0.0000 
     22 PB         12.8650    4.4370  -10.3350 P.3       1 CTP4260     0.0000 
     23 O1B        14.0600    3.9370  -11.4400 O.co2     1 CTP4260     0.0000 
     24 O2B        13.2170    5.9360  -10.0180 O.co2     1 CTP4260     0.0000 
     25 O3B        11.4350    4.1940  -10.9870 O.3       1 CTP4260     0.0000 
     26 PG         11.3040    2.5980  -11.5760 P.3       1 CTP4260     0.0000 
     27 O1G        11.3700    1.5980  -10.3830 O.co2     1 CTP4260     0.0000 
     28 O2G        12.4070    2.3960  -12.6860 O.co2     1 CTP4260     0.0000 
     29 O3G         9.7620    2.3840  -12.2610 O.co2     1 CTP4260     0.0000 
     30 H          15.6972   -1.0731   -3.9663 H         1 CTP4260     0.0000 
     31 H          15.1537   -0.8094   -6.3233 H         1 CTP4260     0.0000 
     32 H          16.7642   -2.4566   -2.2486 H         1 CTP4260     0.0000 
     33 H          17.5963   -3.9676   -2.7488 H         1 CTP4260     0.0000 
     34 H          16.4815   -2.9977   -9.0410 H         1 CTP4260     0.0000 
     35 H          14.0609   -3.6087   -8.1158 H         1 CTP4260     0.0000 
     36 H          13.4202   -1.3892   -7.7401 H         1 CTP4260     0.0000 
     37 H          14.4899   -0.8280  -10.4423 H         1 CTP4260     0.0000 
     38 H          12.9941    0.8153   -8.6813 H         1 CTP4260     0.0000 
     39 H          13.8168    1.3306  -10.1638 H         1 CTP4260     0.0000 
     40 H          13.6379   -4.1213  -10.1816 H         1 CTP4260     0.0000 
     41 H          12.0487   -2.6249   -9.4599 H         1 CTP4260     0.0000 
@<TRIPOS>BOND
     1    2    1 am   
     2    6    1 1    
     3    9    1 1    
     4    3    2 1    
     5    7    2 2    
     6    4    3 2    
     7    5    4 1    
     8    8    4 1    
     9    6    5 2    
    10   30    5 1    
    11   31    6 1    
    12   32    8 1    
    13   33    8 1    
    14   10    9 1    
    15   14    9 1    
    16   34    9 1    
    17   11   10 1    
    18   12   10 1    
    19   35   10 1    
    20   40   11 1    
    21   13   12 1    
    22   15   12 1    
    23   36   12 1    
    24   14   13 1    
    25   16   13 1    
    26   37   13 1    
    27   41   15 1    
    28   17   16 1    
    29   38   16 1    
    30   39   16 1    
    31   18   17 1    
    32   19   18 ar   
    33   20   18 ar   
    34   21   18 1    
    35   22   21 1    
    36   23   22 ar   
    37   24   22 ar   
    38   25   22 1    
    39   26   25 1    
    40   27   26 ar   
    41   28   26 ar   
    42   29   26 ar   
@<TRIPOS>SUBSTRUCTURE
     1 CTP4260     1 GROUP   
@<TRIPOS>SET

