#    Name: 4i4h_Z9Z_1_INTS_M
#    Modification time : Tue Mar 25 02:22:32 2014

@<TRIPOS>MOLECULE
4i4h_Z9Z_1_INTS_M
   76     0     6     0     0
SMALL
NO_CHARGES


@<TRIPOS>ATOM
      1 N         -19.1010   19.3480   -5.5665 N.am      1 SEC2        0.0000 
      2 N         -18.4410   20.2180   -6.2030 N.am      5 SEL2        0.0000 
      3 N         -19.7610   18.4780   -4.9300 N.am      3 SEP2        0.0000 
      4 CA        -17.0010   23.1605   -8.0025 C.3       2 GLC5        0.0000 
      5 CA        -18.7140   22.1390   -8.1980 C.3       6 GLL5        0.0000 
      6 CA        -15.2880   24.1820   -7.8070 C.3       4 GLP5        0.0000 
      7 CA        -16.1475   17.3205   -4.2765 C.3       2 GLC5        0.0000 
      8 CA        -15.9850   19.0050   -5.5560 C.3       6 GLL5        0.0000 
      9 CA        -16.3100   15.6360   -2.9970 C.3       4 GLP5        0.0000 
     10 CA        -14.8660   20.0255   -2.2655 C.3       2 GLC5        0.0000 
     11 CA        -14.2670   20.3380   -4.3600 C.3       6 GLL5        0.0000 
     12 CA        -15.4650   19.7130   -0.1710 C.3       4 GLP5        0.0000 
     13 CA        -13.7550   22.3140   -2.5850 C.3       2 GLC5        0.0000 
     14 CA        -13.1460   21.1610   -4.3800 C.3       6 GLL5        0.0000 
     15 CA        -14.3640   23.4670   -0.7900 C.3       4 GLP5        0.0000 
     16 CA        -12.5580   19.2280   -7.1635 C.3       2 GLC5        0.0000 
     17 CA        -14.2080   20.2370   -6.7820 C.3       6 GLL5        0.0000 
     18 CA        -10.9080   18.2190   -7.5450 C.3       4 GLP5        0.0000 
     19 CA        -16.9165   15.9400   -5.1740 C.3       2 GLC5        0.0000 
     20 CA        -16.3340   16.9440   -6.7250 C.3       6 GLL5        0.0000 
     21 CA        -17.4990   14.9360   -3.6230 C.3       4 GLP5        0.0000 
     22 CA        -19.5315   17.0190   -7.1355 C.3       2 GLC5        0.0000 
     23 CA        -18.2310   16.1590   -8.6080 C.3       6 GLL5        0.0000 
     24 CA        -20.8320   17.8790   -5.6630 C.3       4 GLP5        0.0000 
     25 CA        -20.3500   17.8860   -7.5125 C.3       2 GLC5        0.0000 
     26 CA        -19.8680   17.8930   -9.3620 C.3       6 GLL5        0.0000 
     27 CA        -13.9915   12.0570   -9.1710 C.3       2 GLC5        0.0000 
     28 CA        -14.7270   13.1210  -10.8190 C.3       6 GLL5        0.0000 
     29 CA        -13.2560   10.9930   -7.5230 C.3       4 GLP5        0.0000 
     30 CA        -11.3860   13.8015   -9.8450 C.3       2 GLC5        0.0000 
     31 CA        -12.7090   14.1440   -9.8050 C.3       6 GLL5        0.0000 
     32 CA        -10.0630   13.4590   -9.8850 C.3       4 GLP5        0.0000 
     33 CA        -17.6510   11.4485  -14.5615 C.3       2 GLC5        0.0000 
     34 CA        -16.0350   12.7510  -13.7830 C.3       6 GLL5        0.0000 
     35 CA        -19.2670   10.1460  -15.3400 C.3       4 GLP5        0.0000 
     36 CA        -13.7650   14.4420  -17.2280 C.3       2 GLC5        0.0000 
     37 CA        -14.4010   13.9760  -15.3130 C.3       6 GLL5        0.0000 
     38 CA        -13.1290   14.9080  -19.1430 C.3       4 GLP5        0.0000 
     39 CA         -9.5845    8.9940  -17.2150 C.3       2 GLC5        0.0000 
     40 CA         -9.7700    9.9190  -15.2250 C.3       6 GLL5        0.0000 
     41 CA         -9.3990    8.0690  -19.2050 C.3       4 GLP5        0.0000 
     42 CA        -13.3825    8.2490  -12.7795 C.3       2 GLC5        0.0000 
     43 CA        -11.8340    9.0000  -13.9780 C.3       6 GLL5        0.0000 
     44 CA        -14.9310    7.4980  -11.5810 C.3       4 GLP5        0.0000 
     45 CA        -19.9801   24.0909   -8.3130 C.3       2 GLC5        0.0000 
     46 CA        -20.0350   25.7370   -7.4810 C.3       4 GLP5        0.0000 
     47 CA        -19.6975   24.3483  -12.6357 C.3       2 GLC5        0.0000 
     48 CA        -20.8260   22.7840  -11.7070 C.3       6 GLL5        0.0000 
     49 CA        -19.2520   26.0660  -13.5030 C.3       4 GLP5        0.0000 
     50 CA        -19.6330   23.1857  -13.5813 C.3       2 GLC5        0.0000 
     51 CA        -19.4600   22.4770  -11.8300 C.3       6 GLL5        0.0000 
     52 CA        -19.1230   23.7410  -15.3940 C.3       4 GLP5        0.0000 
     53 CA        -16.2600   20.1301   -3.8859 C.3       2 GLC5        0.0000 
     54 CA        -17.6940   20.3680   -2.8120 C.3       4 GLP5        0.0000 
     55 CA        -12.5471   22.5819   -4.2885 C.3       2 GLC5        0.0000 
     56 CA        -11.9630   24.0300   -3.5950 C.3       4 GLP5        0.0000 
     57 CA        -11.2752   20.8520   -6.7665 C.3       2 GLC5        0.0000 
     58 CA        -12.5560   21.5180   -5.5940 C.3       6 GLL5        0.0000 
     59 CA         -9.7300   20.4150   -7.3370 C.3       4 GLP5        0.0000 
     60 CA        -14.6842   15.5980   -6.2825 C.3       2 GLC5        0.0000 
     61 CA        -13.3250   14.6200   -5.2510 C.3       4 GLP5        0.0000 
     62 CA        -20.0858   15.0053   -9.4530 C.3       2 GLC5        0.0000 
     63 CA        -21.6020   13.4530   -9.7480 C.3       4 GLP5        0.0000 
     64 CA        -19.8612   18.4760  -13.9880 C.3       2 GLC5        0.0000 
     65 CA        -19.2390   17.5130  -12.0630 C.3       6 GLL5        0.0000 
     66 CA        -20.0080   18.9660  -16.0920 C.3       4 GLP5        0.0000 
     67 CA        -12.0607   14.9123  -10.5230 C.3       2 GLC5        0.0000 
     68 CA        -14.1560   15.6750  -11.1610 C.3       6 GLL5        0.0000 
     69 CA         -9.9820   14.7750  -10.3360 C.3       4 GLP5        0.0000 
     70 CA        -12.8275   13.7315   -8.4200 C.3       2 GLC5        0.0000 
     71 CA        -12.2390   13.1790   -6.8080 C.3       4 GLP5        0.0000 
     72 CA         -9.0793   11.0263  -15.3992 C.3       2 GLC5        0.0000 
     73 CA        -11.3270    9.8780  -15.1600 C.3       6 GLL5        0.0000 
     74 CA         -7.6100   12.1540  -15.6060 C.3       4 GLP5        0.0000 
     75 CA         -9.7891    8.5801  -13.9326 C.3       2 GLC5        0.0000 
     76 CA         -8.3870    7.7110  -13.2800 C.3       4 GLP5        0.0000 
@<TRIPOS>BOND
@<TRIPOS>SUBSTRUCTURE
     1 SEC2        1 GROUP        1 X    SEC  0     ROOT SEC X 2
     2 GLC5        4 GROUP        1 X    GLC  0     **** GLC X 6
     3 SEP2        3 GROUP        1 Y    SEP  0     ROOT SEP Y 9
     4 GLP5        6 GROUP        1 Y    GLP  0     **** GLP Y 13
     5 SEL2        2 GROUP        1 Z    SEL  0     ROOT SEL Z 16
     6 GLL5        5 GROUP        1 Z    GLL  0     **** GLL Z 20
@<TRIPOS>SET

