#    Name: 4i4h_Z9Z_1_ligand
#    Modification time : Tue Mar 25 02:22:32 2014

@<TRIPOS>MOLECULE
4i4h_Z9Z_1_ligand
  100   103     1     0     0
SMALL
NO_CHARGES


@<TRIPOS>ATOM
      1 O30       -18.4410   20.2180   -6.2030 O.2       1 Z9Z602      0.0000 
      2 C29       -18.0020   19.9530   -7.3120 C.2       1 Z9Z602      0.0000 
      3 O31       -18.3820   20.7900   -8.3920 O.3       1 Z9Z602      0.0000 
      4 C32       -18.7140   22.1390   -8.1980 C.3       1 Z9Z602      0.0000 
      5 C33       -19.4150   22.3660   -9.4940 C.ar      1 Z9Z602      0.0000 
      6 C38       -20.7860   22.6370   -9.4440 C.ar      1 Z9Z602      0.0000 
      7 N37       -21.4960   22.8610  -10.5520 N.ar      1 Z9Z602      0.0000 
      8 C36       -20.8260   22.7840  -11.7070 C.ar      1 Z9Z602      0.0000 
      9 C35       -19.4600   22.4770  -11.8300 C.ar      1 Z9Z602      0.0000 
     10 C34       -18.7110   22.2550  -10.6930 C.ar      1 Z9Z602      0.0000 
     11 N28       -17.2240   18.9380   -7.6780 N.am      1 Z9Z602      0.0000 
     12 C20       -16.0920   18.4190   -6.9440 C.3       1 Z9Z602      0.0000 
     13 C21       -15.9850   19.0050   -5.5560 C.3       1 Z9Z602      0.0000 
     14 C22       -14.7850   19.8880   -5.5630 C.ar      1 Z9Z602      0.0000 
     15 C27       -14.2670   20.3380   -4.3600 C.ar      1 Z9Z602      0.0000 
     16 C26       -13.1460   21.1610   -4.3800 C.ar      1 Z9Z602      0.0000 
     17 C25       -12.5560   21.5180   -5.5940 C.ar      1 Z9Z602      0.0000 
     18 C24       -13.0850   21.0600   -6.7980 C.ar      1 Z9Z602      0.0000 
     19 C23       -14.2080   20.2370   -6.7820 C.ar      1 Z9Z602      0.0000 
     20 C19       -16.3340   16.9440   -6.7250 C.3       1 Z9Z602      0.0000 
     21 C18       -15.7530   16.2080   -7.9030 C.3       1 Z9Z602      0.0000 
     22 C17       -16.7890   15.7430   -8.9340 C.3       1 Z9Z602      0.0000 
     23 C39       -18.2310   16.1590   -8.6080 C.3       1 Z9Z602      0.0000 
     24 C40       -18.9080   16.9560   -9.7080 C.ar      1 Z9Z602      0.0000 
     25 C45       -19.8680   17.8930   -9.3620 C.ar      1 Z9Z602      0.0000 
     26 C44       -20.4970   18.6430  -10.3570 C.ar      1 Z9Z602      0.0000 
     27 C43       -20.1900   18.4590  -11.7050 C.ar      1 Z9Z602      0.0000 
     28 C42       -19.2390   17.5130  -12.0630 C.ar      1 Z9Z602      0.0000 
     29 C41       -18.6170   16.7670  -11.0610 C.ar      1 Z9Z602      0.0000 
     30 N16       -16.4100   16.1580  -10.2830 N.am      1 Z9Z602      0.0000 
     31 C14       -15.2270   16.6370  -10.6780 C.2       1 Z9Z602      0.0000 
     32 O15       -14.9250   17.9500  -10.6660 O.2       1 Z9Z602      0.0000 
     33 C13       -14.1560   15.6750  -11.1610 C.3       1 Z9Z602      0.0000 
     34 C46       -14.1230   14.4240  -10.2590 C.3       1 Z9Z602      0.0000 
     35 C48       -14.7270   13.1210  -10.8190 C.3       1 Z9Z602      0.0000 
     36 C47       -12.7090   14.1440   -9.8050 C.3       1 Z9Z602      0.0000 
     37 N12       -14.2200   15.4240  -12.6110 N.am      1 Z9Z602      0.0000 
     38 C10       -15.3230   15.1000  -13.3490 C.2       1 Z9Z602      0.0000 
     39 O11       -16.3740   15.7490  -13.3550 O.2       1 Z9Z602      0.0000 
     40 N08       -15.2500   14.0080  -14.1130 N.am      1 Z9Z602      0.0000 
     41 C09       -16.0350   12.7510  -13.7830 C.3       1 Z9Z602      0.0000 
     42 C07       -14.4010   13.9760  -15.3130 C.3       1 Z9Z602      0.0000 
     43 C06       -13.1770   13.1500  -14.9590 C.2       1 Z9Z602      0.0000 
     44 N05       -13.0290   11.8390  -15.3560 N.2       1 Z9Z602      0.0000 
     45 C49       -12.1270   13.6520  -14.1720 C.2       1 Z9Z602      0.0000 
     46 S50       -10.9690   12.3680  -14.0090 S.3       1 Z9Z602      0.0000 
     47 C04       -11.8770   11.2440  -14.9550 C.2       1 Z9Z602      0.0000 
     48 C02       -11.3270    9.8780  -15.1600 C.3       1 Z9Z602      0.0000 
     49 C03        -9.7700    9.9190  -15.2250 C.3       1 Z9Z602      0.0000 
     50 C01       -11.8340    9.0000  -13.9780 C.3       1 Z9Z602      0.0000 
     51 H         -17.8645   22.7682   -8.1478 H         1 Z9Z602      0.0000 
     52 H         -19.3978   22.2838   -7.4033 H         1 Z9Z602      0.0000 
     53 H         -21.2417   22.6587   -8.5007 H         1 Z9Z602      0.0000 
     54 H         -21.3469   22.9659  -12.6246 H         1 Z9Z602      0.0000 
     55 H         -19.0359   22.4214  -12.7597 H         1 Z9Z602      0.0000 
     56 H         -17.7421   22.0322  -10.7182 H         1 Z9Z602      0.0000 
     57 H         -17.4199   18.4248   -8.6023 H         1 Z9Z602      0.0000 
     58 H         -15.1787   18.5377   -7.4568 H         1 Z9Z602      0.0000 
     59 H         -15.8606   18.2108   -4.8395 H         1 Z9Z602      0.0000 
     60 H         -16.8701   19.5787   -5.3392 H         1 Z9Z602      0.0000 
     61 H         -14.6979   20.0722   -3.4738 H         1 Z9Z602      0.0000 
     62 H         -12.7478   21.5097   -3.4972 H         1 Z9Z602      0.0000 
     63 H         -11.7233   22.1248   -5.5974 H         1 Z9Z602      0.0000 
     64 H         -12.6522   21.3259   -7.6865 H         1 Z9Z602      0.0000 
     65 H         -14.6069   19.8908   -7.6592 H         1 Z9Z602      0.0000 
     66 H         -17.3953   16.7559   -6.6628 H         1 Z9Z602      0.0000 
     67 H         -15.8436   16.6269   -5.8169 H         1 Z9Z602      0.0000 
     68 H         -15.1950   15.3222   -7.5457 H         1 Z9Z602      0.0000 
     69 H         -15.0172   16.8554   -8.4159 H         1 Z9Z602      0.0000 
     70 H         -16.7737   14.6210   -8.9091 H         1 Z9Z602      0.0000 
     71 H         -18.2234   16.7540   -7.6794 H         1 Z9Z602      0.0000 
     72 H         -18.8205   15.2500   -8.4015 H         1 Z9Z602      0.0000 
     73 H         -20.1196   18.0389   -8.3768 H         1 Z9Z602      0.0000 
     74 H         -21.2051   19.3495  -10.0888 H         1 Z9Z602      0.0000 
     75 H         -20.6626   19.0171  -12.4208 H         1 Z9Z602      0.0000 
     76 H         -18.9962   17.3630  -13.0430 H         1 Z9Z602      0.0000 
     77 H         -17.9146   16.0475  -11.3296 H         1 Z9Z602      0.0000 
     78 H         -17.2038   16.0477  -11.0046 H         1 Z9Z602      0.0000 
     79 H         -13.1705   16.2109  -10.9499 H         1 Z9Z602      0.0000 
     80 H         -14.6952   14.6716   -9.3298 H         1 Z9Z602      0.0000 
     81 H         -13.2731   15.5156  -13.1082 H         1 Z9Z602      0.0000 
     82 H         -14.0850   14.9707  -15.5879 H         1 Z9Z602      0.0000 
     83 H         -14.9156   13.5048  -16.1365 H         1 Z9Z602      0.0000 
     84 H         -11.9235   14.4065  -13.7673 H         1 Z9Z602      0.0000 
     85 H         -11.7050    9.4632  -16.0704 H         1 Z9Z602      0.0000 
     86 H         -14.2657   12.8277  -11.6564 H         1 Z9Z602      0.0000 
     87 H         -14.6552   12.3675  -10.1655 H         1 Z9Z602      0.0000 
     88 H         -15.6966   13.2260  -11.0399 H         1 Z9Z602      0.0000 
     89 H         -12.0969   13.9774  -10.5780 H         1 Z9Z602      0.0000 
     90 H         -12.3264   14.9097   -9.2879 H         1 Z9Z602      0.0000 
     91 H         -12.6612   13.3385   -9.2143 H         1 Z9Z602      0.0000 
     92 H         -15.8742   12.0261  -14.4529 H         1 Z9Z602      0.0000 
     93 H         -15.7867   12.3825  -12.8871 H         1 Z9Z602      0.0000 
     94 H         -17.0202   12.9219  -13.7669 H         1 Z9Z602      0.0000 
     95 H          -9.3725   10.2804  -14.3816 H         1 Z9Z602      0.0000 
     96 H          -9.3801    9.0091  -15.3663 H         1 Z9Z602      0.0000 
     97 H          -9.4446   10.4968  -15.9735 H         1 Z9Z602      0.0000 
     98 H         -11.5036    8.0586  -14.0462 H         1 Z9Z602      0.0000 
     99 H         -11.5285    9.3546  -13.0943 H         1 Z9Z602      0.0000 
    100 H         -12.8327    8.9586  -13.9478 H         1 Z9Z602      0.0000 
@<TRIPOS>BOND
     1    2    1 2    
     2    3    2 1    
     3   11    2 am   
     4    4    3 1    
     5    5    4 1    
     6   51    4 1    
     7   52    4 1    
     8    6    5 ar   
     9   10    5 ar   
    10    7    6 ar   
    11   53    6 1    
    12    8    7 ar   
    13    9    8 ar   
    14   54    8 1    
    15   10    9 ar   
    16   55    9 1    
    17   56   10 1    
    18   12   11 1    
    19   57   11 1    
    20   13   12 1    
    21   20   12 1    
    22   58   12 1    
    23   14   13 1    
    24   59   13 1    
    25   60   13 1    
    26   15   14 ar   
    27   19   14 ar   
    28   16   15 ar   
    29   61   15 1    
    30   17   16 ar   
    31   62   16 1    
    32   18   17 ar   
    33   63   17 1    
    34   19   18 ar   
    35   64   18 1    
    36   65   19 1    
    37   21   20 1    
    38   66   20 1    
    39   67   20 1    
    40   22   21 1    
    41   68   21 1    
    42   69   21 1    
    43   23   22 1    
    44   30   22 1    
    45   70   22 1    
    46   24   23 1    
    47   71   23 1    
    48   72   23 1    
    49   25   24 ar   
    50   29   24 ar   
    51   26   25 ar   
    52   73   25 1    
    53   27   26 ar   
    54   74   26 1    
    55   28   27 ar   
    56   75   27 1    
    57   29   28 ar   
    58   76   28 1    
    59   77   29 1    
    60   31   30 am   
    61   78   30 1    
    62   32   31 2    
    63   33   31 1    
    64   34   33 1    
    65   37   33 1    
    66   79   33 1    
    67   35   34 1    
    68   36   34 1    
    69   80   34 1    
    70   86   35 1    
    71   87   35 1    
    72   88   35 1    
    73   89   36 1    
    74   90   36 1    
    75   91   36 1    
    76   38   37 am   
    77   81   37 1    
    78   39   38 2    
    79   40   38 am   
    80   41   40 1    
    81   42   40 1    
    82   92   41 1    
    83   93   41 1    
    84   94   41 1    
    85   43   42 1    
    86   82   42 1    
    87   83   42 1    
    88   44   43 1    
    89   45   43 2    
    90   47   44 2    
    91   46   45 1    
    92   84   45 1    
    93   47   46 1    
    94   48   47 1    
    95   49   48 1    
    96   50   48 1    
    97   85   48 1    
    98   95   49 1    
    99   96   49 1    
   100   97   49 1    
   101   98   50 1    
   102   99   50 1    
   103  100   50 1    
@<TRIPOS>SUBSTRUCTURE
     1 Z9Z602      1 GROUP   
@<TRIPOS>SET

