#    Name: 3orz_BI4_2_INTS_M
#    Modification time : Tue Mar 25 05:13:08 2014

@<TRIPOS>MOLECULE
3orz_BI4_2_INTS_M
   69     0     9     0     0
SMALL
NO_CHARGES


@<TRIPOS>ATOM
      1 N          41.4670  -32.1185  -17.1535 N.am      2 SEC2        0.0000 
      2 N          42.9080  -32.0860  -17.2600 N.am      8 SEL2        0.0000 
      3 N          40.0260  -32.1510  -17.0470 N.am      5 SEP2        0.0000 
      4 CA         44.6475  -32.3325  -16.2335 C.3       3 GLC5        0.0000 
      5 CA         44.6880  -30.4280  -17.3570 C.3       9 GLL5        0.0000 
      6 CA         44.6070  -34.2370  -15.1100 C.3       6 GLP5        0.0000 
      7 CA         42.5735  -29.6800  -21.1520 C.3       3 GLC5        0.0000 
      8 CA         43.8550  -30.6160  -19.7030 C.3       9 GLL5        0.0000 
      9 CA         41.2920  -28.7440  -22.6010 C.3       6 GLP5        0.0000 
     10 O          42.6705  -31.7685  -14.4910 O.2       1 ALC1        0.0000 
     11 O          43.6090  -31.0200  -15.3080 O.2       7 ALL1        0.0000 
     12 O          41.7320  -32.5170  -13.6740 O.2       4 ALP1        0.0000 
     13 N          44.9920  -28.1845  -13.3590 N.am      2 SEC2        0.0000 
     14 N          44.7800  -29.5890  -13.8980 N.am      8 SEL2        0.0000 
     15 N          45.2040  -26.7800  -12.8200 N.am      5 SEP2        0.0000 
     16 CA         48.4200  -24.7815  -14.2800 C.3       3 GLC5        0.0000 
     17 CA         48.8530  -26.5030  -14.9870 C.3       9 GLL5        0.0000 
     18 CA         47.9870  -23.0600  -13.5730 C.3       6 GLP5        0.0000 
     19 CA         48.7605  -30.0955  -15.0770 C.3       3 GLC5        0.0000 
     20 CA         47.4000  -28.6870  -14.0090 C.3       9 GLL5        0.0000 
     21 CA         50.1210  -31.5040  -16.1450 C.3       6 GLP5        0.0000 
     22 CA         46.1675  -27.0645  -14.4070 C.3       3 GLC5        0.0000 
     23 CA         44.9350  -25.4420  -14.8050 C.3       6 GLP5        0.0000 
     24 CA         46.4265  -25.6130  -16.3610 C.3       3 GLC5        0.0000 
     25 CA         47.9180  -25.7840  -17.9170 C.3       9 GLL5        0.0000 
     26 CA         53.1870  -29.7145  -19.3185 C.3       3 GLC5        0.0000 
     27 CA         51.7180  -28.5350  -18.1680 C.3       9 GLL5        0.0000 
     28 CA         54.6560  -30.8940  -20.4690 C.3       6 GLP5        0.0000 
     29 CA         50.0910  -23.7560  -20.2565 C.3       3 GLC5        0.0000 
     30 CA         51.6990  -25.0430  -19.5700 C.3       9 GLL5        0.0000 
     31 CA         48.4830  -22.4690  -20.9430 C.3       6 GLP5        0.0000 
     32 CA         46.5943  -31.5387  -16.6668 C.3       3 GLC5        0.0000 
     33 CA         45.2910  -29.6270  -16.2760 C.3       9 GLL5        0.0000 
     34 CA         48.1990  -33.0500  -16.5170 C.3       6 GLP5        0.0000 
     35 CA         44.9525  -32.5575  -19.2870 C.3       3 GLC5        0.0000 
     36 CA         44.9170  -30.4300  -18.8330 C.3       9 GLL5        0.0000 
     37 CA         45.5190  -34.5920  -19.3060 C.3       6 GLP5        0.0000 
     38 CA         47.0400  -31.8942  -20.0658 C.3       3 GLC5        0.0000 
     39 CA         46.1030  -30.2200  -19.5060 C.3       9 GLL5        0.0000 
     40 CA         47.3240  -33.6800  -20.8380 C.3       6 GLP5        0.0000 
     41 CA         48.7492  -31.2915  -18.2700 C.3       3 GLC5        0.0000 
     42 CA         47.4090  -29.9970  -19.0810 C.3       9 GLL5        0.0000 
     43 CA         49.5960  -32.6710  -16.9740 C.3       6 GLP5        0.0000 
     44 CA         47.7777  -31.7695  -20.7832 C.3       3 GLC5        0.0000 
     45 CA         48.3960  -29.8270  -20.0510 C.3       9 GLL5        0.0000 
     46 CA         49.7182  -30.7110  -21.2897 C.3       3 GLC5        0.0000 
     47 CA         48.0670  -29.8910  -21.4060 C.3       9 GLL5        0.0000 
     48 CA         51.2050  -31.5630  -21.8510 C.3       6 GLP5        0.0000 
     49 CA         46.7863  -31.9423  -21.0850 C.3       3 GLC5        0.0000 
     50 CA         46.7480  -30.1210  -21.8120 C.3       9 GLL5        0.0000 
     51 CA         43.5014  -29.1268  -17.8440 C.3       3 GLC5        0.0000 
     52 CA         42.6740  -27.7310  -16.7890 C.3       6 GLP5        0.0000 
     53 CA         44.4047  -28.0648  -16.8120 C.3       3 GLC5        0.0000 
     54 CA         46.4610  -27.7080  -17.3790 C.3       9 GLL5        0.0000 
     55 CA         45.5353  -26.9202  -15.8200 C.3       3 GLC5        0.0000 
     56 CA         46.5616  -26.2574  -15.0314 C.3       3 GLC5        0.0000 
     57 CA         47.1710  -28.1850  -15.2770 C.3       9 GLL5        0.0000 
     58 CA         50.0085  -28.9515  -12.6852 C.3       3 GLC5        0.0000 
     59 CA         49.1020  -26.9860  -13.7100 C.3       9 GLL5        0.0000 
     60 CA         51.2770  -30.3700  -11.9050 C.3       6 GLP5        0.0000 
     61 CA         48.2760  -25.6885  -12.8637 C.3       3 GLC5        0.0000 
     62 CA         48.3780  -28.0800  -13.2210 C.3       9 GLL5        0.0000 
     63 CA         47.8120  -23.8440  -12.2620 C.3       6 GLP5        0.0000 
     64 CA         47.2520  -29.8237  -12.5050 C.3       3 GLC5        0.0000 
     65 CA         46.6150  -31.2640  -11.3950 C.3       6 GLP5        0.0000 
     66 CA         50.5658  -29.9023  -17.0798 C.3       3 GLC5        0.0000 
     67 CA         50.3030  -28.0660  -17.8610 C.3       9 GLL5        0.0000 
     68 CA         54.0438  -27.9405  -18.4515 C.3       3 GLC5        0.0000 
     69 CA         55.9870  -27.9640  -18.4990 C.3       6 GLP5        0.0000 
@<TRIPOS>BOND
@<TRIPOS>SUBSTRUCTURE
     1 ALC1       10 GROUP        1 X    ALC  0     ROOT ALC X 1
     2 SEC2        1 GROUP        1 X    SEC  0     **** SEC X 2
     3 GLC5        4 GROUP        1 X    GLC  0     **** GLC X 6
     4 ALP1       12 GROUP        1 Y    ALP  0     ROOT ALP Y 8
     5 SEP2        3 GROUP        1 Y    SEP  0     **** SEP Y 9
     6 GLP5        6 GROUP        1 Y    GLP  0     **** GLP Y 13
     7 ALL1       11 GROUP        1 Z    ALL  0     ROOT ALL Z 15
     8 SEL2        2 GROUP        1 Z    SEL  0     **** SEL Z 16
     9 GLL5        5 GROUP        1 Z    GLL  0     **** GLL Z 20
@<TRIPOS>SET

