#    Name: 3orz_BI4_2_ligand
#    Modification time : Tue Mar 25 05:13:08 2014

@<TRIPOS>MOLECULE
3orz_BI4_2_ligand
   60    65     1     0     0
SMALL
NO_CHARGES


@<TRIPOS>ATOM
      1 O32        42.9080  -32.0860  -17.2600 O.2       1 BI4360      0.0000 
      2 C18        43.6590  -31.2380  -16.6560 C.2       1 BI4360      0.0000 
      3 C17        44.6880  -30.4280  -17.3570 C.2       1 BI4360      0.0000 
      4 C16        44.9170  -30.4300  -18.8330 C.2       1 BI4360      0.0000 
      5 C15        46.1030  -30.2200  -19.5060 C.ar      1 BI4360      0.0000 
      6 C14        47.4090  -29.9970  -19.0810 C.ar      1 BI4360      0.0000 
      7 C13        48.3960  -29.8270  -20.0510 C.ar      1 BI4360      0.0000 
      8 C12        48.0670  -29.8910  -21.4060 C.ar      1 BI4360      0.0000 
      9 C10        45.7490  -30.2880  -20.8520 C.ar      1 BI4360      0.0000 
     10 C11        46.7480  -30.1210  -21.8120 C.ar      1 BI4360      0.0000 
     11 N9         44.4080  -30.5330  -20.9470 N.pl3     1 BI4360      0.0000 
     12 C8         43.8550  -30.6160  -19.7030 C.2       1 BI4360      0.0000 
     13 N19        43.6090  -31.0200  -15.3080 N.am      1 BI4360      0.0000 
     14 C20        44.5410  -30.0530  -15.0640 C.2       1 BI4360      0.0000 
     15 O33        44.7800  -29.5890  -13.8980 O.2       1 BI4360      0.0000 
     16 C21        45.2910  -29.6270  -16.2760 C.2       1 BI4360      0.0000 
     17 C22        46.3290  -28.5510  -16.3060 C.2       1 BI4360      0.0000 
     18 C7         46.4610  -27.7080  -17.3790 C.2       1 BI4360      0.0000 
     19 C23        47.1710  -28.1850  -15.2770 C.ar      1 BI4360      0.0000 
     20 C5         47.8760  -27.1000  -15.7800 C.ar      1 BI4360      0.0000 
     21 C4         48.8530  -26.5030  -14.9870 C.ar      1 BI4360      0.0000 
     22 C3         49.1020  -26.9860  -13.7100 C.ar      1 BI4360      0.0000 
     23 C2         48.3780  -28.0800  -13.2210 C.ar      1 BI4360      0.0000 
     24 C1         47.4000  -28.6870  -14.0090 C.ar      1 BI4360      0.0000 
     25 N6         47.4380  -26.8520  -17.0330 N.pl3     1 BI4360      0.0000 
     26 C24        47.9180  -25.7840  -17.9170 C.3       1 BI4360      0.0000 
     27 C25        49.4440  -25.7250  -17.9350 C.3       1 BI4360      0.0000 
     28 C26        50.0690  -26.8430  -18.7430 C.3       1 BI4360      0.0000 
     29 C27        50.3030  -28.0660  -17.8610 C.3       1 BI4360      0.0000 
     30 C28        51.7180  -28.5350  -18.1680 C.3       1 BI4360      0.0000 
     31 C29        52.4830  -27.2990  -18.6400 C.3       1 BI4360      0.0000 
     32 N30        51.4260  -26.3630  -19.0120 N.4       1 BI4360      0.0000 
     33 C31        51.6990  -25.0430  -19.5700 C.3       1 BI4360      0.0000 
     34 H          47.6380  -29.9589  -18.0934 H         1 BI4360      0.0000 
     35 H          49.3692  -29.6540  -19.7681 H         1 BI4360      0.0000 
     36 H          48.8036  -29.7675  -22.1172 H         1 BI4360      0.0000 
     37 H          46.5185  -30.1663  -22.8086 H         1 BI4360      0.0000 
     38 H          43.9204  -30.6333  -21.7808 H         1 BI4360      0.0000 
     39 H          42.9635  -30.7643  -19.4750 H         1 BI4360      0.0000 
     40 H          43.0514  -31.4456  -14.6828 H         1 BI4360      0.0000 
     41 H          45.9657  -27.7363  -18.1791 H         1 BI4360      0.0000 
     42 H          49.3892  -25.7037  -15.3500 H         1 BI4360      0.0000 
     43 H          49.8169  -26.5443  -13.1189 H         1 BI4360      0.0000 
     44 H          48.5699  -28.4363  -12.2755 H         1 BI4360      0.0000 
     45 H          46.8704  -29.4805  -13.6539 H         1 BI4360      0.0000 
     46 H          47.5401  -24.8082  -17.5859 H         1 BI4360      0.0000 
     47 H          47.5681  -25.9454  -18.9446 H         1 BI4360      0.0000 
     48 H          49.8133  -25.7730  -16.9005 H         1 BI4360      0.0000 
     49 H          49.7568  -24.7564  -18.3508 H         1 BI4360      0.0000 
     50 H          49.5569  -27.0623  -19.5820 H         1 BI4360      0.0000 
     51 H          49.6036  -28.8330  -18.1172 H         1 BI4360      0.0000 
     52 H          50.2295  -27.7862  -16.8318 H         1 BI4360      0.0000 
     53 H          51.6967  -29.2639  -18.9513 H         1 BI4360      0.0000 
     54 H          52.1732  -28.9204  -17.2795 H         1 BI4360      0.0000 
     55 H          53.0834  -27.5672  -19.4809 H         1 BI4360      0.0000 
     56 H          53.0687  -26.9271  -17.8286 H         1 BI4360      0.0000 
     57 H          51.3706  -26.9472  -20.3239 H         1 BI4360      0.0000 
     58 H          52.6795  -24.8846  -19.6865 H         1 BI4360      0.0000 
     59 H          51.2742  -24.9240  -20.4674 H         1 BI4360      0.0000 
     60 H          51.3519  -24.3123  -18.9822 H         1 BI4360      0.0000 
@<TRIPOS>BOND
     1    2    1 2    
     2    3    2 1    
     3   13    2 am   
     4    4    3 1    
     5   16    3 2    
     6    5    4 1    
     7   12    4 2    
     8    6    5 ar   
     9    9    5 ar   
    10    7    6 ar   
    11   34    6 1    
    12    8    7 ar   
    13   35    7 1    
    14   10    8 ar   
    15   36    8 1    
    16   10    9 ar   
    17   11    9 1    
    18   37   10 1    
    19   12   11 1    
    20   38   11 1    
    21   39   12 1    
    22   14   13 am   
    23   40   13 1    
    24   15   14 2    
    25   16   14 1    
    26   17   16 1    
    27   18   17 2    
    28   19   17 1    
    29   25   18 1    
    30   41   18 1    
    31   20   19 ar   
    32   24   19 ar   
    33   21   20 ar   
    34   25   20 1    
    35   22   21 ar   
    36   42   21 1    
    37   23   22 ar   
    38   43   22 1    
    39   24   23 ar   
    40   44   23 1    
    41   45   24 1    
    42   26   25 1    
    43   27   26 1    
    44   46   26 1    
    45   47   26 1    
    46   28   27 1    
    47   48   27 1    
    48   49   27 1    
    49   29   28 1    
    50   32   28 1    
    51   50   28 1    
    52   30   29 1    
    53   51   29 1    
    54   52   29 1    
    55   31   30 1    
    56   53   30 1    
    57   54   30 1    
    58   32   31 1    
    59   55   31 1    
    60   56   31 1    
    61   33   32 1    
    62   57   32 1    
    63   58   33 1    
    64   59   33 1    
    65   60   33 1    
@<TRIPOS>SUBSTRUCTURE
     1 BI4360      1 GROUP   
@<TRIPOS>SET

