#    Name: 2hu6_37A_1_INTS_M
#    Modification time : Tue Mar 25 17:02:37 2014

@<TRIPOS>MOLECULE
2hu6_37A_1_INTS_M
   59     0     9     0     0
SMALL
NO_CHARGES


@<TRIPOS>ATOM
      1 N          -0.7665   -6.2765    5.9695 N.am      2 SEC2        0.0000 
      2 N           0.5330   -5.8410    5.5950 N.am      8 SEL2        0.0000 
      3 N          -2.0660   -6.7120    6.3440 N.am      5 SEP2        0.0000 
      4 CA          0.4580   -8.0100    5.6655 C.3       3 GLC5        0.0000 
      5 CA          1.3270   -7.1570    3.7870 C.3       9 GLL5        0.0000 
      6 CA         -0.4110   -8.8630    7.5440 C.3       6 GLP5        0.0000 
      7 CA         -1.5730   -8.7620    2.1655 C.3       3 GLC5        0.0000 
      8 CA          0.0110   -7.4110    1.7120 C.3       9 GLL5        0.0000 
      9 CA         -3.1570  -10.1130    2.6190 C.3       6 GLP5        0.0000 
     10 O          -0.7330   -9.6725    3.1520 O.2       1 ALC1        0.0000 
     11 O           0.1180  -10.2950    2.2360 O.2       7 ALL1        0.0000 
     12 O          -1.5840   -9.0500    4.0680 O.2       4 ALP1        0.0000 
     13 CA          4.6490   -6.1540    1.5180 C.3       3 GLC5        0.0000 
     14 CA          2.7420   -6.9180    1.9470 C.3       9 GLL5        0.0000 
     15 CA          6.5560   -5.3900    1.0890 C.3       6 GLP5        0.0000 
     16 O           3.9855   -6.4815    4.5085 O.2       1 ALC1        0.0000 
     17 O           2.7700   -6.1330    5.4250 O.2       7 ALL1        0.0000 
     18 O           5.2010   -6.8300    3.5920 O.2       4 ALP1        0.0000 
     19 CA          2.6185   -7.8900    8.3285 C.3       3 GLC5        0.0000 
     20 CA          4.3010   -6.4440    8.5970 C.3       9 GLL5        0.0000 
     21 CA          0.9360   -9.3360    8.0600 C.3       6 GLP5        0.0000 
     22 CA          2.9525   -5.9655   10.0485 C.3       3 GLC5        0.0000 
     23 CA          1.6040   -5.4870   11.5000 C.3       6 GLP5        0.0000 
     24 CA          5.2855   -4.7020    8.4430 C.3       3 GLC5        0.0000 
     25 CA          6.2700   -2.9600    8.2890 C.3       6 GLP5        0.0000 
     26 CA          4.6390   -6.3660   10.9120 C.3       3 GLC5        0.0000 
     27 CA          5.4250   -7.0210    9.1910 C.3       9 GLL5        0.0000 
     28 CA          3.8530   -5.7110   12.6330 C.3       6 GLP5        0.0000 
     29 CA          6.2275   -5.8270    4.5705 C.3       3 GLC5        0.0000 
     30 CA          5.5480   -6.1440    6.5620 C.3       9 GLL5        0.0000 
     31 CA          6.9070   -5.5100    2.5790 C.3       6 GLP5        0.0000 
     32 CA         10.2435   -6.8830   10.7380 C.3       3 GLC5        0.0000 
     33 CA         10.0310   -9.0370   10.3120 C.3       9 GLL5        0.0000 
     34 CA         10.4560   -4.7290   11.1640 C.3       6 GLP5        0.0000 
     35 CA         10.9435  -10.2410   11.9000 C.3       3 GLC5        0.0000 
     36 CA         11.8560  -11.4450   13.4880 C.3       6 GLP5        0.0000 
     37 CA         -1.2016   -6.8456    3.2615 C.3       3 GLC5        0.0000 
     38 CA         -2.9120   -6.5960    4.0610 C.3       6 GLP5        0.0000 
     39 CA          4.4893   -4.0475    7.2797 C.3       3 GLC5        0.0000 
     40 CA          3.1510   -5.3630    6.6000 C.3       9 GLL5        0.0000 
     41 CA          5.2250   -2.4120    7.6240 C.3       6 GLP5        0.0000 
     42 CA          6.2510   -5.1625    9.2920 C.3       3 GLC5        0.0000 
     43 CA          6.4800   -3.2310    9.7510 C.3       6 GLP5        0.0000 
     44 CA          4.5609   -8.5251    8.0637 C.3       3 GLC5        0.0000 
     45 CA          4.2450  -10.4280    7.5650 C.3       6 GLP5        0.0000 
     46 CA          6.1890   -4.6982    7.5727 C.3       3 GLC5        0.0000 
     47 CA          6.6680   -6.7290    7.1510 C.3       9 GLL5        0.0000 
     48 CA          6.3520   -7.8232    5.1702 C.3       3 GLC5        0.0000 
     49 CA          6.5960   -9.2100    3.4840 C.3       6 GLP5        0.0000 
     50 CA          5.8749   -8.4740    7.0753 C.3       3 GLC5        0.0000 
     51 CA          5.6540  -10.4020    6.9630 C.3       6 GLP5        0.0000 
     52 CA          6.6913   -9.3487    8.2785 C.3       3 GLC5        0.0000 
     53 CA          7.8190   -7.8030    9.1070 C.3       9 GLL5        0.0000 
     54 CA         10.7228   -6.2505    9.0265 C.3       3 GLC5        0.0000 
     55 CA          9.1190   -7.4480    8.7320 C.3       9 GLL5        0.0000 
     56 CA         11.7760   -4.7460    9.0210 C.3       6 GLP5        0.0000 
     57 CA          7.5500   -8.8483   12.2355 C.3       3 GLC5        0.0000 
     58 CA          8.7380   -9.3990   10.6870 C.3       9 GLL5        0.0000 
     59 CA          6.9120   -8.6030   14.0870 C.3       6 GLP5        0.0000 
@<TRIPOS>BOND
@<TRIPOS>SUBSTRUCTURE
     1 ALC1       10 GROUP        1 X    ALC  0     ROOT ALC X 1
     2 SEC2        1 GROUP        1 X    SEC  0     **** SEC X 2
     3 GLC5        4 GROUP        1 X    GLC  0     **** GLC X 6
     4 ALP1       12 GROUP        1 Y    ALP  0     ROOT ALP Y 8
     5 SEP2        3 GROUP        1 Y    SEP  0     **** SEP Y 9
     6 GLP5        6 GROUP        1 Y    GLP  0     **** GLP Y 13
     7 ALL1       11 GROUP        1 Z    ALL  0     ROOT ALL Z 15
     8 SEL2        2 GROUP        1 Z    SEL  0     **** SEL Z 16
     9 GLL5        5 GROUP        1 Z    GLL  0     **** GLL Z 20
@<TRIPOS>SET

