#    Name: 2hu6_37A_1_ligand
#    Modification time : Tue Mar 25 17:02:37 2014

@<TRIPOS>MOLECULE
2hu6_37A_1_ligand
   49    52     1     0     0
SMALL
NO_CHARGES


@<TRIPOS>ATOM
      1 O6          0.5330   -5.8410    5.5950 O.2       1 37A400      0.0000 
      2 C9          1.5110   -6.3100    5.0200 C.2       1 37A400      0.0000 
      3 C6          1.3270   -7.1570    3.7870 C.3       1 37A400      0.0000 
      4 O2          2.5770   -7.5640    3.2180 O.3       1 37A400      0.0000 
      5 C5          0.6860   -6.4020    2.6370 C.3       1 37A400      0.0000 
      6 C7          0.0110   -7.4110    1.7120 C.3       1 37A400      0.0000 
      7 N1          1.0300   -8.3930    1.2810 N.am      1 37A400      0.0000 
      8 C21         0.8530   -9.7200    1.2870 C.2       1 37A400      0.0000 
      9 O1          1.3590  -10.4160    0.4140 O.2       1 37A400      0.0000 
     10 N2          0.1180  -10.2950    2.2360 N.am      1 37A400      0.0000 
     11 O4         -0.1440  -11.6660    2.1790 O.3       1 37A400      0.0000 
     12 C3          2.3170   -7.8590    0.8330 C.3       1 37A400      0.0000 
     13 O3          1.7960   -5.8640    1.9350 O.3       1 37A400      0.0000 
     14 C1          2.7420   -6.9180    1.9470 C.3       1 37A400      0.0000 
     15 N3          2.7700   -6.1330    5.4250 N.am      1 37A400      0.0000 
     16 C12         3.1510   -5.3630    6.6000 C.3       1 37A400      0.0000 
     17 C13         4.3560   -6.0030    7.2710 C.ar      1 37A400      0.0000 
     18 C15         4.3010   -6.4440    8.5970 C.ar      1 37A400      0.0000 
     19 C19         5.4250   -7.0210    9.1910 C.ar      1 37A400      0.0000 
     20 C17         6.6190   -7.1670    8.4750 C.ar      1 37A400      0.0000 
     21 C16         6.6680   -6.7290    7.1510 C.ar      1 37A400      0.0000 
     22 C14         5.5480   -6.1440    6.5620 C.ar      1 37A400      0.0000 
     23 C18         7.8190   -7.8030    9.1070 C.ar      1 37A400      0.0000 
     24 C11         9.1190   -7.4480    8.7320 C.ar      1 37A400      0.0000 
     25 C2         10.2200   -8.0620    9.3320 C.ar      1 37A400      0.0000 
     26 C20         7.6380   -8.7880   10.0810 C.ar      1 37A400      0.0000 
     27 C10         8.7380   -9.3990   10.6870 C.ar      1 37A400      0.0000 
     28 C4         10.0310   -9.0370   10.3120 C.ar      1 37A400      0.0000 
     29 H           0.7189   -8.0122    3.9974 H         1 37A400      0.0000 
     30 H           0.0264   -5.7007    2.9805 H         1 37A400      0.0000 
     31 H          -0.3967   -6.8833    0.8584 H         1 37A400      0.0000 
     32 H          -0.7876   -7.9018    2.2548 H         1 37A400      0.0000 
     33 H          -0.2729   -9.7523    3.0283 H         1 37A400      0.0000 
     34 H           2.2111   -7.3000   -0.0743 H         1 37A400      0.0000 
     35 H           3.0474   -8.6361    0.7353 H         1 37A400      0.0000 
     36 H           3.7121   -6.5841    1.7824 H         1 37A400      0.0000 
     37 H           3.5777   -6.5597    4.8912 H         1 37A400      0.0000 
     38 H           2.3327   -5.3244    7.3253 H         1 37A400      0.0000 
     39 H           3.4132   -4.3363    6.3274 H         1 37A400      0.0000 
     40 H           3.4315   -6.3427    9.1341 H         1 37A400      0.0000 
     41 H           5.3767   -7.3442   10.1694 H         1 37A400      0.0000 
     42 H           7.5348   -6.8385    6.6076 H         1 37A400      0.0000 
     43 H           5.6023   -5.8099    5.5851 H         1 37A400      0.0000 
     44 H           9.2635   -6.7299    8.0095 H         1 37A400      0.0000 
     45 H          11.1717   -7.7949    9.0509 H         1 37A400      0.0000 
     46 H           6.6844   -9.0661   10.3546 H         1 37A400      0.0000 
     47 H           8.5932  -10.1148   11.4087 H         1 37A400      0.0000 
     48 H          10.8400   -9.4851   10.7542 H         1 37A400      0.0000 
     49 H           0.4723  -12.0181    1.4746 H         1 37A400      0.0000 
@<TRIPOS>BOND
     1    2    1 2    
     2    3    2 1    
     3   15    2 am   
     4    4    3 1    
     5    5    3 1    
     6   29    3 1    
     7   14    4 1    
     8    6    5 1    
     9   13    5 1    
    10   30    5 1    
    11    7    6 1    
    12   31    6 1    
    13   32    6 1    
    14    8    7 am   
    15   12    7 1    
    16    9    8 2    
    17   10    8 am   
    18   11   10 1    
    19   33   10 1    
    20   49   11 1    
    21   14   12 1    
    22   34   12 1    
    23   35   12 1    
    24   14   13 1    
    25   36   14 1    
    26   16   15 1    
    27   37   15 1    
    28   17   16 1    
    29   38   16 1    
    30   39   16 1    
    31   18   17 ar   
    32   22   17 ar   
    33   19   18 ar   
    34   40   18 1    
    35   20   19 ar   
    36   41   19 1    
    37   21   20 ar   
    38   23   20 1    
    39   22   21 ar   
    40   42   21 1    
    41   43   22 1    
    42   24   23 ar   
    43   26   23 ar   
    44   25   24 ar   
    45   44   24 1    
    46   28   25 ar   
    47   45   25 1    
    48   27   26 ar   
    49   46   26 1    
    50   28   27 ar   
    51   47   27 1    
    52   48   28 1    
@<TRIPOS>SUBSTRUCTURE
     1 37A400      1 GROUP   
@<TRIPOS>SET

