#    Name: 1psa_0ZL_2_INTS_M
#    Modification time : Mon Mar 24 22:13:40 2014

@<TRIPOS>MOLECULE
1psa_0ZL_2_INTS_M
  101     0     9     0     0
SMALL
NO_CHARGES


@<TRIPOS>ATOM
      1 O          32.5780   36.7675   -1.8545 O.2       1 ALC1        0.0000 
      2 O          31.3830   36.7400   -2.6790 O.2       7 ALL1        0.0000 
      3 O          33.7730   36.7950   -1.0300 O.2       4 ALP1        0.0000 
      4 CA         28.5725   35.1785   -2.4570 C.3       3 GLC5        0.0000 
      5 CA         30.0640   36.7820   -2.0550 C.3       9 GLL5        0.0000 
      6 CA         27.0810   33.5750   -2.8590 C.3       6 GLP5        0.0000 
      7 N          32.1775   39.2185   -0.9910 N.am      2 SEC2        0.0000 
      8 N          30.6760   39.1160   -1.7860 N.am      8 SEL2        0.0000 
      9 N          33.6790   39.3210   -0.1960 N.am      5 SEP2        0.0000 
     10 CA         32.3480   33.3485    1.5425 C.3       3 GLC5        0.0000 
     11 CA         31.1330   34.8400    1.1320 C.3       9 GLL5        0.0000 
     12 CA         33.5630   31.8570    1.9530 C.3       6 GLP5        0.0000 
     13 CA         30.8055   33.7675    2.8060 C.3       3 GLC5        0.0000 
     14 CA         30.4780   32.6950    4.4800 C.3       6 GLP5        0.0000 
     15 CA         28.4635   33.6185   -1.7460 C.3       3 GLC5        0.0000 
     16 CA         29.8460   33.6620   -0.6330 C.3       9 GLL5        0.0000 
     17 CA         28.7470   32.4110    0.4050 C.3       3 GLC5        0.0000 
     18 CA         27.6480   31.1600    1.4430 C.3       6 GLP5        0.0000 
     19 O          27.4440   37.7365   -2.2790 O.2       1 ALC1        0.0000 
     20 O          28.4870   38.6910   -1.9510 O.2       7 ALL1        0.0000 
     21 O          26.4010   36.7820   -2.6070 O.2       4 ALP1        0.0000 
     22 N          25.1555   39.2505   -2.0985 N.am      2 SEC2        0.0000 
     23 N          25.8810   39.8250   -1.0100 N.am      8 SEL2        0.0000 
     24 N          24.4300   38.6760   -3.1870 N.am      5 SEP2        0.0000 
     25 CA         30.1775   44.4055   -3.6155 C.3       3 GLC5        0.0000 
     26 CA         29.3790   42.4400   -3.6870 C.3       9 GLL5        0.0000 
     27 CA         30.9760   46.3710   -3.5440 C.3       6 GLP5        0.0000 
     28 CA         24.4095   39.2415    0.9675 C.3       3 GLC5        0.0000 
     29 CA         26.2870   39.6690    1.6770 C.3       9 GLL5        0.0000 
     30 CA         22.5320   38.8140    0.2580 C.3       6 GLP5        0.0000 
     31 O          28.7180   39.3105    1.2985 O.2       1 ALC1        0.0000 
     32 O          27.3390   39.8330    0.6820 O.2       7 ALL1        0.0000 
     33 O          30.0970   38.7880    1.9150 O.2       4 ALP1        0.0000 
     34 CA         24.1800   39.8010    2.6545 C.3       3 GLC5        0.0000 
     35 CA         26.0020   40.8860    2.5780 C.3       9 GLL5        0.0000 
     36 CA         22.3580   38.7160    2.7310 C.3       6 GLP5        0.0000 
     37 N          28.0760   42.3510    3.1115 N.am      2 SEC2        0.0000 
     38 N          27.2510   41.2470    3.1470 N.am      8 SEL2        0.0000 
     39 N          28.9010   43.4550    3.0760 N.am      5 SEP2        0.0000 
     40 O          27.4765   40.6105    4.3880 O.2       1 ALC1        0.0000 
     41 O          27.2510   41.2470    3.1470 O.2       7 ALL1        0.0000 
     42 O          27.7020   39.9740    5.6290 O.2       4 ALP1        0.0000 
     43 O          26.4340   40.3660    4.3835 O.2       1 ALC1        0.0000 
     44 O          25.6170   39.4850    5.6200 O.2       4 ALP1        0.0000 
     45 N          23.8595   41.3085   -0.3260 N.am      2 SEC2        0.0000 
     46 N          24.3010   41.7380    1.1340 N.am      8 SEL2        0.0000 
     47 N          23.4180   40.8790   -1.7860 N.am      5 SEP2        0.0000 
     48 CA         25.9575   43.4770    4.3990 C.3       3 GLC5        0.0000 
     49 CA         25.4210   43.4850    2.4980 C.3       9 GLL5        0.0000 
     50 CA         26.4940   43.4690    6.3000 C.3       6 GLP5        0.0000 
     51 CA         25.1365   46.6460   -0.6295 C.3       3 GLC5        0.0000 
     52 CA         25.6360   44.8680    0.4400 C.3       9 GLL5        0.0000 
     53 CA         24.6370   48.4240   -1.6990 C.3       6 GLP5        0.0000 
     54 CA         27.3220   45.4995   -0.0445 C.3       3 GLC5        0.0000 
     55 CA         29.0080   46.1310   -0.5290 C.3       6 GLP5        0.0000 
     56 CA         24.3055   46.5065    3.8835 C.3       3 GLC5        0.0000 
     57 CA         25.2520   45.9600    2.5020 C.3       9 GLL5        0.0000 
     58 CA         23.3590   47.0530    5.2650 C.3       6 GLP5        0.0000 
     59 CA         26.7445   46.4965    3.2785 C.3       3 GLC5        0.0000 
     60 CA         28.2370   47.0330    4.0550 C.3       6 GLP5        0.0000 
     61 CA         24.4985   38.5900    2.6220 C.3       3 GLC5        0.0000 
     62 CA         26.6390   38.4640    2.5130 C.3       9 GLL5        0.0000 
     63 CA         28.5580   38.7210    3.3645 C.3       3 GLC5        0.0000 
     64 CA         30.4770   38.9780    4.2160 C.3       6 GLP5        0.0000 
     65 CA         23.9825   37.7990    0.6860 C.3       3 GLC5        0.0000 
     66 CA         25.4330   36.7840    1.1140 C.3       9 GLL5        0.0000 
     67 CA         24.3150   35.6615    2.5705 C.3       3 GLC5        0.0000 
     68 CA         23.1970   34.5390    4.0270 C.3       6 GLP5        0.0000 
     69 CA         28.0750   35.5580    4.3445 C.3       3 GLC5        0.0000 
     70 CA         26.9270   36.0730    2.9060 C.3       9 GLL5        0.0000 
     71 CA         29.2230   35.0430    5.7830 C.3       6 GLP5        0.0000 
     72 CA         25.7470   36.1855   -1.8010 C.3       3 GLC5        0.0000 
     73 CA         25.7080   35.5760    0.3070 C.3       9 GLL5        0.0000 
     74 CA         25.7860   36.7950   -3.9090 C.3       6 GLP5        0.0000 
     75 CA         28.1035   33.7740    3.4795 C.3       3 GLC5        0.0000 
     76 CA         27.2180   34.7610    2.2240 C.3       9 GLL5        0.0000 
     77 CA         28.9890   32.7870    4.7350 C.3       6 GLP5        0.0000 
     78 CA         24.9050   32.8020    0.6070 C.3       3 GLC5        0.0000 
     79 CA         26.0540   34.4600    1.2820 C.3       9 GLL5        0.0000 
     80 CA         23.7560   31.1440   -0.0680 C.3       6 GLP5        0.0000 
     81 CA         34.9845   38.6040   -5.4168 C.3       3 GLC5        0.0000 
     82 CA         33.2050   37.2520   -5.8190 C.3       9 GLL5        0.0000 
     83 CA         36.0670   40.2280   -4.8410 C.3       6 GLP5        0.0000 
     84 CA         31.9733   32.8893   -0.0018 C.3       3 GLC5        0.0000 
     85 CA         30.7630   34.8370   -0.3400 C.3       9 GLL5        0.0000 
     86 CA         33.6420   31.5290    0.4830 C.3       6 GLP5        0.0000 
     87 CA         27.2695   39.0240   -3.5542 C.3       3 GLC5        0.0000 
     88 CA         28.1710   40.0680   -1.6160 C.3       9 GLL5        0.0000 
     89 CA         26.6020   37.5990   -4.8850 C.3       6 GLP5        0.0000 
     90 CA         30.3708   42.3602   -2.0330 C.3       3 GLC5        0.0000 
     91 CA         28.1180   42.2930   -2.8370 C.3       9 GLL5        0.0000 
     92 CA         31.9930   42.3540   -0.8040 C.3       6 GLP5        0.0000 
     93 CA         25.6701   41.7289   -3.1320 C.3       3 GLC5        0.0000 
     94 CA         27.0120   43.1560   -3.4160 C.3       9 GLL5        0.0000 
     95 CA         23.8790   41.0990   -3.1390 C.3       6 GLP5        0.0000 
     96 CA         27.8926   44.1226   -4.5220 C.3       3 GLC5        0.0000 
     97 CA         27.9050   45.4840   -5.7050 C.3       6 GLP5        0.0000 
     98 CA         25.8085   34.2820   -0.8788 C.3       3 GLC5        0.0000 
     99 CA         25.7360   33.5460   -2.5520 C.3       6 GLP5        0.0000 
    100 CA         27.1420   32.8852    1.5980 C.3       3 GLC5        0.0000 
    101 CA         24.8801   34.7387    2.9752 C.3       3 GLC5        0.0000 
@<TRIPOS>BOND
@<TRIPOS>SUBSTRUCTURE
     1 ALC1        1 GROUP        1 X    ALC  0     ROOT ALC X 1
     2 SEC2        7 GROUP        1 X    SEC  0     **** SEC X 2
     3 GLC5        4 GROUP        1 X    GLC  0     **** GLC X 6
     4 ALP1        3 GROUP        1 Y    ALP  0     ROOT ALP Y 8
     5 SEP2        9 GROUP        1 Y    SEP  0     **** SEP Y 9
     6 GLP5        6 GROUP        1 Y    GLP  0     **** GLP Y 13
     7 ALL1        2 GROUP        1 Z    ALL  0     ROOT ALL Z 15
     8 SEL2        8 GROUP        1 Z    SEL  0     **** SEL Z 16
     9 GLL5        5 GROUP        1 Z    GLL  0     **** GLL Z 20
@<TRIPOS>SET

