#    Name: 1psa_0ZL_2_ligand
#    Modification time : Mon Mar 24 22:13:41 2014

@<TRIPOS>MOLECULE
1psa_0ZL_2_ligand
   93    93     1     0     0
SMALL
NO_CHARGES


@<TRIPOS>ATOM
      1 C3         34.5990   36.7080   -6.1660 C.3       1 0ZL327      0.0000 
      2 C4         33.2050   37.2520   -5.8190 C.3       1 0ZL327      0.0000 
      3 O2         32.9050   36.9610   -4.5050 O.3       1 0ZL327      0.0000 
      4 C1         31.5640   36.8620   -3.9950 C.2       1 0ZL327      0.0000 
      5 O1         30.6150   36.8440   -4.7860 O.2       1 0ZL327      0.0000 
      6 N          31.3830   36.7400   -2.6790 N.am      1 0ZL327      0.0000 
      7 CA         30.0640   36.7820   -2.0550 C.3       1 0ZL327      0.0000 
      8 C          29.7520   38.2780   -1.9140 C.2       1 0ZL327      0.0000 
      9 O          30.6760   39.1160   -1.7860 O.2       1 0ZL327      0.0000 
     10 CB         30.0950   36.1820   -0.6530 C.3       1 0ZL327      0.0000 
     11 CG         30.7630   34.8370   -0.3400 C.3       1 0ZL327      0.0000 
     12 CD1        31.1330   34.8400    1.1320 C.3       1 0ZL327      0.0000 
     13 CD2        29.8460   33.6620   -0.6330 C.3       1 0ZL327      0.0000 
     14 N1         28.4870   38.6910   -1.9510 N.am      1 0ZL327      0.0000 
     15 CA1        28.1710   40.0680   -1.6160 C.3       1 0ZL327      0.0000 
     16 C2         27.0430   39.9310   -0.6170 C.2       1 0ZL327      0.0000 
     17 O3         25.8810   39.8250   -1.0100 O.2       1 0ZL327      0.0000 
     18 CB1        27.7030   40.8300   -2.8310 C.3       1 0ZL327      0.0000 
     19 CG1        28.1180   42.2930   -2.8370 C.3       1 0ZL327      0.0000 
     20 CD11       29.3790   42.4400   -3.6870 C.3       1 0ZL327      0.0000 
     21 CD21       27.0120   43.1560   -3.4160 C.3       1 0ZL327      0.0000 
     22 C11        26.2870   39.6690    1.6770 C.3       1 0ZL327      0.0000 
     23 N2         27.3390   39.8330    0.6820 N.am      1 0ZL327      0.0000 
     24 C21        26.0020   40.8860    2.5780 C.3       1 0ZL327      0.0000 
     25 O21        27.2510   41.2470    3.1470 O.3       1 0ZL327      0.0000 
     26 C31        25.5160   42.1260    1.7700 C.3       1 0ZL327      0.0000 
     27 O31        24.3010   41.7380    1.1340 O.3       1 0ZL327      0.0000 
     28 C41        25.4210   43.4850    2.4980 C.3       1 0ZL327      0.0000 
     29 C5         24.9230   44.7200    1.7410 C.3       1 0ZL327      0.0000 
     30 C6         25.6360   44.8680    0.4400 C.3       1 0ZL327      0.0000 
     31 C7         25.2520   45.9600    2.5020 C.3       1 0ZL327      0.0000 
     32 C7'        26.6390   38.4640    2.5130 C.3       1 0ZL327      0.0000 
     33 C1'        26.7100   37.1160    1.8420 C.3       1 0ZL327      0.0000 
     34 C2'        25.4330   36.7840    1.1140 C.3       1 0ZL327      0.0000 
     35 C6'        26.9270   36.0730    2.9060 C.3       1 0ZL327      0.0000 
     36 C3'        25.7080   35.5760    0.3070 C.3       1 0ZL327      0.0000 
     37 C5'        27.2180   34.7610    2.2240 C.3       1 0ZL327      0.0000 
     38 C4'        26.0540   34.4600    1.2820 C.3       1 0ZL327      0.0000 
     39 H          32.4999   36.7981   -6.5341 H         1 0ZL327      0.0000 
     40 H          33.2251   38.3338   -6.0284 H         1 0ZL327      0.0000 
     41 H          32.1873   36.6066   -2.0214 H         1 0ZL327      0.0000 
     42 H          29.3284   36.3351   -2.6412 H         1 0ZL327      0.0000 
     43 H          29.0182   36.1267   -0.2730 H         1 0ZL327      0.0000 
     44 H          30.5474   36.9615    0.0504 H         1 0ZL327      0.0000 
     45 H          31.6604   34.7530   -0.9192 H         1 0ZL327      0.0000 
     46 H          27.7011   38.0821   -2.2079 H         1 0ZL327      0.0000 
     47 H          28.9853   40.5459   -1.1521 H         1 0ZL327      0.0000 
     48 H          26.6016   40.7724   -2.8954 H         1 0ZL327      0.0000 
     49 H          28.0990   40.3442   -3.7408 H         1 0ZL327      0.0000 
     50 H          28.3345   42.6047   -1.8391 H         1 0ZL327      0.0000 
     51 H          25.3385   39.4140    1.1597 H         1 0ZL327      0.0000 
     52 H          28.3082   39.8678    1.0389 H         1 0ZL327      0.0000 
     53 H          25.2893   40.6373    3.3045 H         1 0ZL327      0.0000 
     54 H          26.2905   42.2511    0.9492 H         1 0ZL327      0.0000 
     55 H          26.4367   43.7183    2.9267 H         1 0ZL327      0.0000 
     56 H          24.7735   43.3435    3.4094 H         1 0ZL327      0.0000 
     57 H          23.8809   44.6587    1.5816 H         1 0ZL327      0.0000 
     58 H          25.9072   38.3982    3.3685 H         1 0ZL327      0.0000 
     59 H          27.6253   38.6606    3.0232 H         1 0ZL327      0.0000 
     60 H          27.5328   37.0921    1.1613 H         1 0ZL327      0.0000 
     61 H          25.1590   37.6107    0.4765 H         1 0ZL327      0.0000 
     62 H          24.6515   36.5893    1.8326 H         1 0ZL327      0.0000 
     63 H          26.0354   35.9786    3.5122 H         1 0ZL327      0.0000 
     64 H          27.7670   36.3546    3.5276 H         1 0ZL327      0.0000 
     65 H          26.5472   35.7394   -0.3514 H         1 0ZL327      0.0000 
     66 H          24.8359   35.2887   -0.2600 H         1 0ZL327      0.0000 
     67 H          27.2954   33.9732    2.9557 H         1 0ZL327      0.0000 
     68 H          28.1281   34.8360    1.6511 H         1 0ZL327      0.0000 
     69 H          26.2899   33.5420    0.7081 H         1 0ZL327      0.0000 
     70 H          25.1580   34.2229    1.8892 H         1 0ZL327      0.0000 
     71 H          35.3087   37.1081   -5.5862 H         1 0ZL327      0.0000 
     72 H          34.6501   35.7161   -6.0496 H         1 0ZL327      0.0000 
     73 H          34.8493   36.9052   -7.1139 H         1 0ZL327      0.0000 
     74 H          31.5742   33.9854    1.4058 H         1 0ZL327      0.0000 
     75 H          31.7665   35.5812    1.3542 H         1 0ZL327      0.0000 
     76 H          30.3299   34.9557    1.7166 H         1 0ZL327      0.0000 
     77 H          30.2853   32.7876   -0.4269 H         1 0ZL327      0.0000 
     78 H          29.0059   33.7026   -0.0921 H         1 0ZL327      0.0000 
     79 H          29.5742   33.6339   -1.5949 H         1 0ZL327      0.0000 
     80 H          29.6960   43.3878   -3.7203 H         1 0ZL327      0.0000 
     81 H          30.1342   41.8908   -3.3292 H         1 0ZL327      0.0000 
     82 H          29.2264   42.1486   -4.6313 H         1 0ZL327      0.0000 
     83 H          27.2658   44.1231   -3.4328 H         1 0ZL327      0.0000 
     84 H          26.7904   42.8948   -4.3555 H         1 0ZL327      0.0000 
     85 H          26.1679   43.0837   -2.8848 H         1 0ZL327      0.0000 
     86 H          26.6231   44.9662    0.5665 H         1 0ZL327      0.0000 
     87 H          25.4940   44.0758   -0.1536 H         1 0ZL327      0.0000 
     88 H          25.3238   45.6725   -0.0652 H         1 0ZL327      0.0000 
     89 H          26.2373   46.0603    2.6406 H         1 0ZL327      0.0000 
     90 H          24.9377   46.7818    2.0267 H         1 0ZL327      0.0000 
     91 H          24.8268   45.9641    3.4071 H         1 0ZL327      0.0000 
     92 H          27.3072   40.7266    3.9991 H         1 0ZL327      0.0000 
     93 H          24.2745   40.7415    1.2129 H         1 0ZL327      0.0000 
@<TRIPOS>BOND
     1    2    1 1    
     2   71    1 1    
     3   72    1 1    
     4   73    1 1    
     5    3    2 1    
     6   39    2 1    
     7   40    2 1    
     8    4    3 1    
     9    5    4 2    
    10    6    4 am   
    11    7    6 1    
    12   41    6 1    
    13    8    7 1    
    14   10    7 1    
    15   42    7 1    
    16    9    8 2    
    17   14    8 am   
    18   11   10 1    
    19   43   10 1    
    20   44   10 1    
    21   12   11 1    
    22   13   11 1    
    23   45   11 1    
    24   74   12 1    
    25   75   12 1    
    26   76   12 1    
    27   77   13 1    
    28   78   13 1    
    29   79   13 1    
    30   15   14 1    
    31   46   14 1    
    32   16   15 1    
    33   18   15 1    
    34   47   15 1    
    35   17   16 2    
    36   23   16 am   
    37   19   18 1    
    38   48   18 1    
    39   49   18 1    
    40   20   19 1    
    41   21   19 1    
    42   50   19 1    
    43   80   20 1    
    44   81   20 1    
    45   82   20 1    
    46   83   21 1    
    47   84   21 1    
    48   85   21 1    
    49   23   22 1    
    50   24   22 1    
    51   32   22 1    
    52   51   22 1    
    53   52   23 1    
    54   25   24 1    
    55   26   24 1    
    56   53   24 1    
    57   92   25 1    
    58   27   26 1    
    59   28   26 1    
    60   54   26 1    
    61   93   27 1    
    62   29   28 1    
    63   55   28 1    
    64   56   28 1    
    65   30   29 1    
    66   31   29 1    
    67   57   29 1    
    68   86   30 1    
    69   87   30 1    
    70   88   30 1    
    71   89   31 1    
    72   90   31 1    
    73   91   31 1    
    74   33   32 1    
    75   58   32 1    
    76   59   32 1    
    77   34   33 1    
    78   35   33 1    
    79   60   33 1    
    80   36   34 1    
    81   61   34 1    
    82   62   34 1    
    83   37   35 1    
    84   63   35 1    
    85   64   35 1    
    86   38   36 1    
    87   65   36 1    
    88   66   36 1    
    89   38   37 1    
    90   67   37 1    
    91   68   37 1    
    92   69   38 1    
    93   70   38 1    
@<TRIPOS>SUBSTRUCTURE
     1 0ZL327      1 GROUP   
@<TRIPOS>SET

