#    Name: 4hxr_1A4_1_INTS_M
#    Modification time : Tue Mar 25 01:56:50 2014

@<TRIPOS>MOLECULE
4hxr_1A4_1_INTS_M
   38     0     6     0     0
SMALL
NO_CHARGES


@<TRIPOS>ATOM
      1 CA         -8.0220    4.7080   -7.0835 C.3       2 GLC5        0.0000 
      2 CA         -7.6230    5.5690   -5.4490 C.3       6 GLL5        0.0000 
      3 CA         -8.4210    3.8470   -8.7180 C.3       4 GLP5        0.0000 
      4 CA         -5.8220    4.5560   -2.0705 C.3       2 GLC5        0.0000 
      5 CA         -6.4770    6.2540   -3.3590 C.3       6 GLL5        0.0000 
      6 CA         -5.1670    2.8580   -0.7820 C.3       4 GLP5        0.0000 
      7 CA         -9.8715    9.1345    0.5780 C.3       2 GLC5        0.0000 
      8 CA         -8.6710    7.5100   -0.3230 C.3       6 GLL5        0.0000 
      9 CA        -11.0720   10.7590    1.4790 C.3       4 GLP5        0.0000 
     10 CA         -6.0165    9.7515    0.5860 C.3       2 GLC5        0.0000 
     11 CA         -6.4300    8.3180   -0.3450 C.3       6 GLL5        0.0000 
     12 CA         -5.6030   11.1850    1.5170 C.3       4 GLP5        0.0000 
     13 N         -13.6505    4.6855   -0.2405 N.am      1 SEC2        0.0000 
     14 N         -12.9510    4.8090    1.0380 N.am      5 SEL2        0.0000 
     15 N         -14.3500    4.5620   -1.5190 N.am      3 SEP2        0.0000 
     16 CA         -9.0637    5.1235   -4.5250 C.3       2 GLC5        0.0000 
     17 CA         -7.8940    7.0590   -5.2510 C.3       6 GLL5        0.0000 
     18 CA        -10.3690    3.9330   -3.7000 C.3       4 GLP5        0.0000 
     19 CA         -6.5555    3.4915   -4.7453 C.3       2 GLC5        0.0000 
     20 CA         -5.8950    1.6700   -4.5740 C.3       4 GLP5        0.0000 
     21 CA         -7.7170    4.5752   -2.8248 C.3       2 GLC5        0.0000 
     22 CA         -6.8090    5.0570   -4.3840 C.3       6 GLL5        0.0000 
     23 CA         -8.7910    3.4950   -1.7780 C.3       4 GLP5        0.0000 
     24 CA         -8.6530    5.2908   -0.7875 C.3       2 GLC5        0.0000 
     25 CA         -6.2900    5.1803    0.6800 C.3       2 GLC5        0.0000 
     26 CA         -7.0780    6.6250    1.2460 C.3       6 GLL5        0.0000 
     27 CA         -5.9840    3.3190    0.3860 C.3       4 GLP5        0.0000 
     28 CA         -9.0910    4.3863   -0.0280 C.3       2 GLC5        0.0000 
     29 CA         -9.3510    4.7710    2.2000 C.3       6 GLL5        0.0000 
     30 CA         -7.5535    4.4081    0.9896 C.3       2 GLC5        0.0000 
     31 CA         -9.7942    2.4737    1.8377 C.3       2 GLC5        0.0000 
     32 CA         -9.5490    0.5150    1.3750 C.3       4 GLP5        0.0000 
     33 CA        -10.2652    5.6789    3.6292 C.3       2 GLC5        0.0000 
     34 CA        -10.7280    4.0940    2.4010 C.3       6 GLL5        0.0000 
     35 CA        -10.4710    6.6720    5.1970 C.3       4 GLP5        0.0000 
     36 CA         -7.3931    8.5506    1.6789 C.3       2 GLC5        0.0000 
     37 CA         -8.3590    6.6630    0.7290 C.3       6 GLL5        0.0000 
     38 CA         -7.3500    9.9320    2.8370 C.3       4 GLP5        0.0000 
@<TRIPOS>BOND
@<TRIPOS>SUBSTRUCTURE
     1 SEC2       13 GROUP        1 X    SEC  0     ROOT SEC X 2
     2 GLC5        1 GROUP        1 X    GLC  0     **** GLC X 6
     3 SEP2       15 GROUP        1 Y    SEP  0     ROOT SEP Y 9
     4 GLP5        3 GROUP        1 Y    GLP  0     **** GLP Y 13
     5 SEL2       14 GROUP        1 Z    SEL  0     ROOT SEL Z 16
     6 GLL5        2 GROUP        1 Z    GLL  0     **** GLL Z 20
@<TRIPOS>SET

