#    Name: 4hxr_1A4_1_ligand
#    Modification time : Tue Mar 25 01:56:50 2014

@<TRIPOS>MOLECULE
4hxr_1A4_1_ligand
   31    33     1     0     0
SMALL
NO_CHARGES


@<TRIPOS>ATOM
      1 CAI        -7.8940    7.0590   -5.2510 C.2       1 1A4201      0.0000 
      2 CAD        -7.6230    5.5690   -5.4490 C.2       1 1A4201      0.0000 
      3 CAF        -6.8090    5.0570   -4.3840 C.2       1 1A4201      0.0000 
      4 SAN        -6.4770    6.2540   -3.3590 S.3       1 1A4201      0.0000 
      5 CAS        -7.2460    7.4900   -4.0350 C.2       1 1A4201      0.0000 
      6 SAU        -7.2200    9.1240   -3.3540 S.o2      1 1A4201      0.0000 
      7 OAB        -5.8420    9.4810   -3.0950 O.2       1 1A4201      0.0000 
      8 OAC        -7.7870   10.0630   -4.3390 O.2       1 1A4201      0.0000 
      9 NAL        -8.0530    9.2230   -1.9490 N.pl3     1 1A4201      0.0000 
     10 CAP        -7.7160    8.3510   -0.8650 C.ar      1 1A4201      0.0000 
     11 CAK        -8.6710    7.5100   -0.3230 C.ar      1 1A4201      0.0000 
     12 CAG        -6.4300    8.3180   -0.3450 C.ar      1 1A4201      0.0000 
     13 CAE        -6.1140    7.4580    0.7020 C.ar      1 1A4201      0.0000 
     14 CAH        -7.0780    6.6250    1.2460 C.ar      1 1A4201      0.0000 
     15 CAQ        -8.3590    6.6630    0.7290 C.ar      1 1A4201      0.0000 
     16 CAR        -9.4310    5.7840    1.2440 C.2       1 1A4201      0.0000 
     17 CAJ        -9.3510    4.7710    2.2000 C.2       1 1A4201      0.0000 
     18 SAO       -10.7280    4.0940    2.4010 S.3       1 1A4201      0.0000 
     19 CAT       -11.6380    4.9300    1.3190 C.2       1 1A4201      0.0000 
     20 OAA       -12.9510    4.8090    1.0380 O.2       1 1A4201      0.0000 
     21 NAM       -10.8070    5.9200    0.6810 N.am      1 1A4201      0.0000 
     22 H          -8.3924    7.5573   -5.8353 H         1 1A4201      0.0000 
     23 H          -7.9623    5.1005   -6.1785 H         1 1A4201      0.0000 
     24 H          -6.4877    4.2250   -4.2282 H         1 1A4201      0.0000 
     25 H          -8.7606    9.9027   -1.9385 H         1 1A4201      0.0000 
     26 H          -9.6335    7.5121   -0.7078 H         1 1A4201      0.0000 
     27 H          -5.7014    8.9352   -0.7366 H         1 1A4201      0.0000 
     28 H          -5.1507    7.4424    1.0754 H         1 1A4201      0.0000 
     29 H          -6.8445    5.9943    2.0158 H         1 1A4201      0.0000 
     30 H          -8.6095    4.4799    2.6947 H         1 1A4201      0.0000 
     31 H         -11.0496    6.5313    0.0460 H         1 1A4201      0.0000 
@<TRIPOS>BOND
     1    2    1 1    
     2    5    1 2    
     3   22    1 1    
     4    3    2 2    
     5   23    2 1    
     6    4    3 1    
     7   24    3 1    
     8    5    4 1    
     9    6    5 1    
    10    7    6 2    
    11    8    6 2    
    12    9    6 1    
    13   10    9 1    
    14   25    9 1    
    15   11   10 ar   
    16   12   10 ar   
    17   15   11 ar   
    18   26   11 1    
    19   13   12 ar   
    20   27   12 1    
    21   14   13 ar   
    22   28   13 1    
    23   15   14 ar   
    24   29   14 1    
    25   16   15 1    
    26   17   16 2    
    27   21   16 1    
    28   18   17 1    
    29   30   17 1    
    30   19   18 1    
    31   20   19 2    
    32   21   19 am   
    33   31   21 1    
@<TRIPOS>SUBSTRUCTURE
     1 1A4201      1 GROUP   
@<TRIPOS>SET

