#    Name: 2bxp_P1Z_1_INTS_M
#    Modification time : Mon Mar 24 21:55:49 2014

@<TRIPOS>MOLECULE
2bxp_P1Z_1_INTS_M
   65     0     6     0     0
SMALL
NO_CHARGES


@<TRIPOS>ATOM
      1 CA         35.6865   12.6840    8.1545 C.3       2 GLC5        0.0000 
      2 CA         36.9240   14.0470    9.2470 C.3       6 GLL5        0.0000 
      3 CA         34.4490   11.3210    7.0620 C.3       4 GLP5        0.0000 
      4 CA         37.4200   17.4125   10.8220 C.3       2 GLC5        0.0000 
      5 CA         36.2420   16.4020    9.3000 C.3       6 GLL5        0.0000 
      6 CA         38.5980   18.4230   12.3440 C.3       4 GLP5        0.0000 
      7 CA         35.6625   18.2595    8.8090 C.3       2 GLC5        0.0000 
      8 CA         35.0830   20.1170    8.3180 C.3       4 GLP5        0.0000 
      9 CA         36.6425   18.6805    9.5380 C.3       2 GLC5        0.0000 
     10 CA         37.5960   16.7760    9.4330 C.3       6 GLL5        0.0000 
     11 CA         35.6890   20.5850    9.6430 C.3       4 GLP5        0.0000 
     12 CA         38.8155   15.2790    7.4915 C.3       2 GLC5        0.0000 
     13 CA         38.6050   15.8030    9.4740 C.3       6 GLL5        0.0000 
     14 CA         39.0260   14.7550    5.5090 C.3       4 GLP5        0.0000 
     15 CA         34.0645   17.1490    2.4440 C.3       2 GLC5        0.0000 
     16 CA         33.8320   16.7100    4.4190 C.3       6 GLL5        0.0000 
     17 CA         34.2970   17.5880    0.4690 C.3       4 GLP5        0.0000 
     18 CA         32.8160   15.0330    3.6310 C.3       2 GLC5        0.0000 
     19 CA         34.2640   15.4200    4.7740 C.3       6 GLL5        0.0000 
     20 CA         31.3680   14.6460    2.4880 C.3       4 GLP5        0.0000 
     21 CA         34.4465   15.2710    2.6835 C.3       2 GLC5        0.0000 
     22 CA         34.6290   15.1220    0.5930 C.3       4 GLP5        0.0000 
     23 CA         35.0135   17.8180    5.8755 C.3       2 GLC5        0.0000 
     24 CA         33.2060   17.1550    6.7430 C.3       6 GLL5        0.0000 
     25 CA         36.8210   18.4810    5.0080 C.3       4 GLP5        0.0000 
     26 CA         30.9525    8.5095    8.3325 C.3       2 GLC5        0.0000 
     27 CA         30.6190   10.0840    9.5120 C.3       6 GLL5        0.0000 
     28 CA         31.2860    6.9350    7.1530 C.3       4 GLP5        0.0000 
     29 CA         29.0125   13.1875    8.7900 C.3       2 GLC5        0.0000 
     30 CA         30.5400   12.5220   10.0290 C.3       6 GLL5        0.0000 
     31 CA         27.4850   13.8530    7.5510 C.3       4 GLP5        0.0000 
     32 N          34.1565   11.3025   10.4370 N.am      1 SEC2        0.0000 
     33 N          34.4540   12.8350   10.6370 N.am      5 SEL2        0.0000 
     34 N          33.8590    9.7700   10.2370 N.am      3 SEP2        0.0000 
     35 N          29.7585   15.2620    8.6475 N.am      1 SEC2        0.0000 
     36 N          31.2270   15.7930    8.8890 N.am      5 SEL2        0.0000 
     37 N          28.2900   14.7310    8.4060 N.am      3 SEP2        0.0000 
     38 N          29.9660   15.8830    9.5965 N.am      1 SEC2        0.0000 
     39 N          28.7050   15.9730   10.3040 N.am      3 SEP2        0.0000 
     40 CA         40.0670   14.0657    9.7415 C.3       2 GLC5        0.0000 
     41 CA         38.2730   14.4380    9.3840 C.3       6 GLL5        0.0000 
     42 CA         41.6950   13.0110   10.0540 C.3       4 GLP5        0.0000 
     43 CA         37.4081   14.1209    7.5719 C.3       2 GLC5        0.0000 
     44 CA         38.0740   13.6120    5.8840 C.3       4 GLP5        0.0000 
     45 CA         39.7022   17.4983    9.2758 C.3       2 GLC5        0.0000 
     46 CA         41.3040   18.7070    9.0980 C.3       4 GLP5        0.0000 
     47 CA         38.6502   16.5011   10.9420 C.3       2 GLC5        0.0000 
     48 CA         39.2830   17.0540   12.4530 C.3       4 GLP5        0.0000 
     49 CA         34.1707   18.7370    7.1947 C.3       2 GLC5        0.0000 
     50 CA         33.3110   17.5590    5.4000 C.3       6 GLL5        0.0000 
     51 CA         36.1462   14.4050    5.6677 C.3       2 GLC5        0.0000 
     52 CA         34.1730   14.9760    6.1290 C.3       6 GLL5        0.0000 
     53 CA         35.3694   17.3791    4.9249 C.3       2 GLC5        0.0000 
     54 CA         33.2056   13.6795    5.9566 C.3       2 GLC5        0.0000 
     55 CA         32.4820   11.8330    5.6310 C.3       4 GLP5        0.0000 
     56 CA         32.2955    9.7310    9.6313 C.3       2 GLC5        0.0000 
     57 CA         34.0570    8.8470    9.2390 C.3       4 GLP5        0.0000 
     58 CA         28.9750   10.8143    9.0291 C.3       2 GLC5        0.0000 
     59 CA         30.4490   11.1460   10.5350 C.3       6 GLL5        0.0000 
     60 CA         27.4130   10.0600    8.0320 C.3       4 GLP5        0.0000 
     61 CA         32.5417   15.3978   11.5362 C.3       2 GLC5        0.0000 
     62 CA         31.4350   13.4930   10.8790 C.3       6 GLL5        0.0000 
     63 CA         33.1110   16.9920   12.6180 C.3       4 GLP5        0.0000 
     64 CA         31.9933   15.9444    5.3688 C.3       2 GLC5        0.0000 
     65 CA         30.3390   15.6090    4.5140 C.3       4 GLP5        0.0000 
@<TRIPOS>BOND
@<TRIPOS>SUBSTRUCTURE
     1 SEC2       32 GROUP        1 X    SEC  0     ROOT SEC X 2
     2 GLC5        1 GROUP        1 X    GLC  0     **** GLC X 6
     3 SEP2       34 GROUP        1 Y    SEP  0     ROOT SEP Y 9
     4 GLP5        3 GROUP        1 Y    GLP  0     **** GLP Y 13
     5 SEL2       33 GROUP        1 Z    SEL  0     ROOT SEL Z 16
     6 GLL5        2 GROUP        1 Z    GLL  0     **** GLL Z 20
@<TRIPOS>SET

