#    Name: 2bxp_P1Z_1_ligand
#    Modification time : Mon Mar 24 21:55:49 2014

@<TRIPOS>MOLECULE
2bxp_P1Z_1_ligand
   42    44     1     0     0
SMALL
NO_CHARGES


@<TRIPOS>ATOM
      1 C16        38.2730   14.4380    9.3840 C.ar      1 P1Z3001     0.0000 
      2 C17        36.9240   14.0470    9.2470 C.ar      1 P1Z3001     0.0000 
      3 C12        35.8860   15.0170    9.2040 C.ar      1 P1Z3001     0.0000 
      4 C13        36.2420   16.4020    9.3000 C.ar      1 P1Z3001     0.0000 
      5 C14        37.5960   16.7760    9.4330 C.ar      1 P1Z3001     0.0000 
      6 C15        38.6050   15.8030    9.4740 C.ar      1 P1Z3001     0.0000 
      7 C8         33.3110   17.5590    5.4000 C.ar      1 P1Z3001     0.0000 
      8 C9         33.8320   16.7100    4.4190 C.ar      1 P1Z3001     0.0000 
      9 C10        34.2640   15.4200    4.7740 C.ar      1 P1Z3001     0.0000 
     10 C11        34.1730   14.9760    6.1290 C.ar      1 P1Z3001     0.0000 
     11 C6         33.6400   15.8540    7.1130 C.ar      1 P1Z3001     0.0000 
     12 C7         33.2060   17.1550    6.7430 C.ar      1 P1Z3001     0.0000 
     13 C21        30.6190   10.0840    9.5120 C.3       1 P1Z3001     0.0000 
     14 C20        30.4490   11.1460   10.5350 C.3       1 P1Z3001     0.0000 
     15 C19        30.5400   12.5220   10.0290 C.3       1 P1Z3001     0.0000 
     16 C18        31.4350   13.4930   10.8790 C.3       1 P1Z3001     0.0000 
     17 N2         34.5200   14.5760    9.0460 N.am      1 P1Z3001     0.0000 
     18 C3         33.8430   13.7310   10.0010 C.2       1 P1Z3001     0.0000 
     19 C4         32.5100   14.1140   10.0300 C.2       1 P1Z3001     0.0000 
     20 C5         32.2900   15.1640    9.1500 C.2       1 P1Z3001     0.0000 
     21 N1         33.5280   15.4910    8.5210 N.am      1 P1Z3001     0.0000 
     22 O3         34.4540   12.8350   10.6370 O.2       1 P1Z3001     0.0000 
     23 O5         31.2270   15.7930    8.8890 O.2       1 P1Z3001     0.0000 
     24 H          39.0082   13.7286    9.4177 H         1 P1Z3001     0.0000 
     25 H          36.6852   13.0522    9.1773 H         1 P1Z3001     0.0000 
     26 H          35.5100   17.1092    9.2712 H         1 P1Z3001     0.0000 
     27 H          37.8411   17.7714    9.5001 H         1 P1Z3001     0.0000 
     28 H          39.5853   16.0834    9.5695 H         1 P1Z3001     0.0000 
     29 H          32.9939   18.5085    5.1351 H         1 P1Z3001     0.0000 
     30 H          33.8999   17.0220    3.4483 H         1 P1Z3001     0.0000 
     31 H          34.6464   14.7893    4.0669 H         1 P1Z3001     0.0000 
     32 H          34.4845   14.0482    6.3825 H         1 P1Z3001     0.0000 
     33 H          32.8250   17.7818    7.4454 H         1 P1Z3001     0.0000 
     34 H          31.2101   10.9952   11.3412 H         1 P1Z3001     0.0000 
     35 H          29.4632   11.0016   11.0443 H         1 P1Z3001     0.0000 
     36 H          29.5326   12.9863    9.9658 H         1 P1Z3001     0.0000 
     37 H          30.9443   12.5357    8.9942 H         1 P1Z3001     0.0000 
     38 H          31.8751   12.9169   11.6895 H         1 P1Z3001     0.0000 
     39 H          30.7890   14.2611   11.2976 H         1 P1Z3001     0.0000 
     40 H          31.5108   10.1401    9.0631 H         1 P1Z3001     0.0000 
     41 H          30.5486    9.1696    9.9107 H         1 P1Z3001     0.0000 
     42 H          29.9252   10.1451    8.7944 H         1 P1Z3001     0.0000 
@<TRIPOS>BOND
     1    2    1 ar   
     2    6    1 ar   
     3   24    1 1    
     4    3    2 ar   
     5   25    2 1    
     6    4    3 ar   
     7   17    3 1    
     8    5    4 ar   
     9   26    4 1    
    10    6    5 ar   
    11   27    5 1    
    12   28    6 1    
    13    8    7 ar   
    14   12    7 ar   
    15   29    7 1    
    16    9    8 ar   
    17   30    8 1    
    18   10    9 ar   
    19   31    9 1    
    20   11   10 ar   
    21   32   10 1    
    22   12   11 ar   
    23   21   11 1    
    24   33   12 1    
    25   14   13 1    
    26   40   13 1    
    27   41   13 1    
    28   42   13 1    
    29   15   14 1    
    30   34   14 1    
    31   35   14 1    
    32   16   15 1    
    33   36   15 1    
    34   37   15 1    
    35   19   16 1    
    36   38   16 1    
    37   39   16 1    
    38   18   17 am   
    39   21   17 1    
    40   19   18 1    
    41   22   18 2    
    42   20   19 1    
    43   21   20 am   
    44   23   20 2    
@<TRIPOS>SUBSTRUCTURE
     1 P1Z3001     1 GROUP   
@<TRIPOS>SET

