#    Name: 4brg_GNP_1_INTS_M
#    Modification time : Tue Mar 25 08:18:45 2014

@<TRIPOS>MOLECULE
4brg_GNP_1_INTS_M
   72     0    15     0     0
SMALL
NO_CHARGES


@<TRIPOS>ATOM
      1 N          62.6960    5.4965   10.9725 N.am      2 SEC2        0.0000 
      2 N          61.3400    5.8670   11.0520 N.am     12 SEL2        0.0000 
      3 N          64.0520    5.1260   10.8930 N.am      7 SEP2        0.0000 
      4 N          61.3160    6.9575   10.2000 N.am      2 SEC2        0.0000 
      5 N          61.2920    8.0480    9.3480 N.am      7 SEP2        0.0000 
      6 N          61.2300    7.4990   11.6635 N.am      2 SEC2        0.0000 
      7 N          61.1200    9.1310   12.2750 N.am      7 SEP2        0.0000 
      8 Zn         59.2805    4.5195    9.0925 Zn        4 ZIC7        0.0000 
      9 Zn         59.3090    4.7520   10.0630 Zn       14 ZIL7        0.0000 
     10 Zn         59.2520    4.2870    8.1220 Zn        9 ZIP7        0.0000 
     11 N          57.9710    4.8070   10.4465 N.am      2 SEC2        0.0000 
     12 N          59.3090    4.7520   10.0630 N.am     12 SEL2        0.0000 
     13 N          56.6330    4.8620   10.8300 N.am      7 SEP2        0.0000 
     14 N          59.9230    3.9515   13.7295 N.am      2 SEC2        0.0000 
     15 N          59.6810    4.6630   12.5810 N.am     12 SEL2        0.0000 
     16 N          60.1650    3.2400   14.8780 N.am      7 SEP2        0.0000 
     17 N          58.8805    4.8820   13.8655 N.am      2 SEC2        0.0000 
     18 N          58.0800    5.1010   15.1500 N.am      7 SEP2        0.0000 
     19 NZ         61.8255    3.1480    7.3125 N.4       3 LYC4        0.0000 
     20 NZ         60.9240    3.1150    8.4440 N.4      13 LYL4        0.0000 
     21 NZ         63.6480    2.2060    5.9840 N.4       8 LYP4        0.0000 
     22 Zn         60.0880    3.7010    8.2830 Zn        4 ZIC7        0.0000 
     23 Zn         60.9240    3.1150    8.4440 Zn       14 ZIL7        0.0000 
     24 N          61.8255    3.1480    7.3125 N.am      2 SEC2        0.0000 
     25 N          60.9240    3.1150    8.4440 N.am     12 SEL2        0.0000 
     26 N          62.7270    3.1810    6.1810 N.am      7 SEP2        0.0000 
     27 NZ         63.5315    1.8265    8.2770 N.4       3 LYC4        0.0000 
     28 NZ         63.0050    2.2190    9.5470 N.4      13 LYL4        0.0000 
     29 N          64.1910    2.4295   10.2965 N.am      2 SEC2        0.0000 
     30 N          63.0050    2.2190    9.5470 N.am     12 SEL2        0.0000 
     31 N          65.3770    2.6400   11.0460 N.am      7 SEP2        0.0000 
     32 N          63.8200    1.1375    9.5780 N.am      2 SEC2        0.0000 
     33 N          64.6350    0.0560    9.6090 N.am      7 SEP2        0.0000 
     34 N          63.5315    1.8265    8.2770 N.am      2 SEC2        0.0000 
     35 N          64.0580    1.4340    7.0070 N.am      7 SEP2        0.0000 
     36 N          60.1380    1.2605   11.3180 N.am      2 SEC2        0.0000 
     37 N          60.7720    1.0790    9.8750 N.am     12 SEL2        0.0000 
     38 N          59.5040    1.4420   12.7610 N.am      7 SEP2        0.0000 
     39 NZ         62.5990    1.0150    6.8690 N.4       3 LYC4        0.0000 
     40 NZ         61.5500   -0.1760    7.7540 N.4      13 LYL4        0.0000 
     41 CA         58.3975    0.0450   11.0200 C.3       5 GLC5        0.0000 
     42 CA         59.3550   -1.6120   10.4560 C.3      15 GLL5        0.0000 
     43 CA         57.4400    1.7020   11.5840 C.3      10 GLP5        0.0000 
     44 CA         60.7780   -0.5915   13.0555 C.3       5 GLC5        0.0000 
     45 CA         61.1360   -2.2070   12.2680 C.3      15 GLL5        0.0000 
     46 CA         60.4200    1.0240   13.8430 C.3      10 GLP5        0.0000 
     47 N          61.9580   -1.9830   14.7385 N.am      2 SEC2        0.0000 
     48 N          60.9110   -2.3810   13.6960 N.am     12 SEL2        0.0000 
     49 N          63.0050   -1.5850   15.7810 N.am      7 SEP2        0.0000 
     50 N          63.9800   -4.5545   12.4325 N.am      2 SEC2        0.0000 
     51 N          63.1070   -3.4580   12.7390 N.am     12 SEL2        0.0000 
     52 N          64.8530   -5.6510   12.1260 N.am      7 SEP2        0.0000 
     53 O          57.9845   -8.0695   12.1310 O.2       1 ALC1        0.0000 
     54 O          58.9470   -9.0830   11.9330 O.2      11 ALL1        0.0000 
     55 O          57.0220   -7.0560   12.3290 O.2       6 ALP1        0.0000 
     56 N          59.9500   -6.4485   12.8770 N.am      2 SEC2        0.0000 
     57 N          60.2360   -7.1930   11.3510 N.am     12 SEL2        0.0000 
     58 N          59.6640   -5.7040   14.4030 N.am      7 SEP2        0.0000 
     59 CA         60.0012   -0.5310   12.4280 C.3       5 GLC5        0.0000 
     60 CA         59.8100   -2.5600   11.5700 C.3      15 GLL5        0.0000 
     61 CA         58.0063   -3.0960   10.4480 C.3       5 GLC5        0.0000 
     62 CA         56.4300   -4.1060    9.8830 C.3      10 GLP5        0.0000 
     63 CA         59.3540   -2.5092   13.7770 C.3       5 GLC5        0.0000 
     64 CA         58.2350   -2.6350   15.6350 C.3      10 GLP5        0.0000 
     65 CA         62.9925   -1.3552   11.9992 C.3       5 GLC5        0.0000 
     66 CA         64.3500    0.0120   12.0030 C.3      10 GLP5        0.0000 
     67 CA         62.4988   -5.3670   12.4975 C.3       5 GLC5        0.0000 
     68 CA         62.1340   -3.2380   11.7230 C.3      15 GLL5        0.0000 
     69 CA         63.3210   -6.9260   13.3980 C.3      10 GLP5        0.0000 
     70 CA         60.0070   -7.5160    8.9138 C.3       5 GLC5        0.0000 
     71 CA         61.1980   -6.6130   10.5710 C.3      15 GLL5        0.0000 
     72 CA         58.4610   -8.0450    7.7920 C.3      10 GLP5        0.0000 
@<TRIPOS>BOND
@<TRIPOS>SUBSTRUCTURE
     1 ALC1       53 GROUP        1 X    ALC  0     ROOT ALC X 1
     2 SEC2        1 GROUP        1 X    SEC  0     **** SEC X 2
     3 LYC4       19 GROUP        1 X    LYC  0     **** LYC X 4
     4 ZIC7        8 GROUP        1 X    ZIC  0     **** ZIC X 5
     5 GLC5       41 GROUP        1 X    GLC  0     **** GLC X 6
     6 ALP1       55 GROUP        1 Y    ALP  0     ROOT ALP Y 8
     7 SEP2        3 GROUP        1 Y    SEP  0     **** SEP Y 9
     8 LYP4       21 GROUP        1 Y    LYP  0     **** LYP Y 11
     9 ZIP7       10 GROUP        1 Y    ZIP  0     **** ZIP Y 12
    10 GLP5       43 GROUP        1 Y    GLP  0     **** GLP Y 13
    11 ALL1       54 GROUP        1 Z    ALL  0     ROOT ALL Z 15
    12 SEL2        2 GROUP        1 Z    SEL  0     **** SEL Z 16
    13 LYL4       20 GROUP        1 Z    LYL  0     **** LYL Z 18
    14 ZIL7        9 GROUP        1 Z    ZIL  0     **** ZIL Z 19
    15 GLL5       42 GROUP        1 Z    GLL  0     **** GLL Z 20
@<TRIPOS>SET

