#    Name: 4brg_GNP_1_ligand
#    Modification time : Tue Mar 25 08:18:45 2014

@<TRIPOS>MOLECULE
4brg_GNP_1_ligand
   44    46     1     0     0
SMALL
NO_CHARGES


@<TRIPOS>ATOM
      1 PG         60.3170    4.7120   11.1690 P.3       1 GNP1393     0.0000 
      2 O1G        61.3400    5.8670   11.0520 O.co2     1 GNP1393     0.0000 
      3 O2G        59.3090    4.7520   10.0630 O.co2     1 GNP1393     0.0000 
      4 O3G        59.6810    4.6630   12.5810 O.co2     1 GNP1393     0.0000 
      5 PB         61.5380    2.4650    9.6090 P.3       1 GNP1393     0.0000 
      6 O1B        60.9240    3.1150    8.4440 O.co2     1 GNP1393     0.0000 
      7 O2B        63.0050    2.2190    9.5470 O.co2     1 GNP1393     0.0000 
      8 O3A        60.7720    1.0790    9.8750 O.3       1 GNP1393     0.0000 
      9 PA         60.4520   -0.0500    8.7590 P.3       1 GNP1393     0.0000 
     10 O1A        61.5500   -0.1760    7.7540 O.co2     1 GNP1393     0.0000 
     11 O2A        59.0520    0.1450    8.2970 O.co2     1 GNP1393     0.0000 
     12 O5'        60.4540   -1.3540    9.6680 O.3       1 GNP1393     0.0000 
     13 C5'        59.3550   -1.6120   10.4560 C.3       1 GNP1393     0.0000 
     14 C4'        59.8100   -2.5600   11.5700 C.3       1 GNP1393     0.0000 
     15 O4'        60.0290   -3.8110   10.8760 O.3       1 GNP1393     0.0000 
     16 C3'        61.1360   -2.2070   12.2680 C.3       1 GNP1393     0.0000 
     17 O3'        60.9110   -2.3810   13.6960 O.3       1 GNP1393     0.0000 
     18 C2'        62.1340   -3.2380   11.7230 C.3       1 GNP1393     0.0000 
     19 O2'        63.1070   -3.4580   12.7390 O.3       1 GNP1393     0.0000 
     20 C1'        61.2190   -4.3780   11.4710 C.3       1 GNP1393     0.0000 
     21 N9         61.6950   -5.3780   10.5470 N.pl3     1 GNP1393     0.0000 
     22 C8         62.6380   -5.3090    9.5690 C.2       1 GNP1393     0.0000 
     23 N7         62.7920   -6.4910    8.9220 N.2       1 GNP1393     0.0000 
     24 C5         61.9080   -7.3610    9.5000 C.2       1 GNP1393     0.0000 
     25 C6         61.5220   -8.7620    9.3880 C.2       1 GNP1393     0.0000 
     26 O6         62.0360   -9.4690    8.5420 O.2       1 GNP1393     0.0000 
     27 N1         60.5530   -9.2060   10.2130 N.am      1 GNP1393     0.0000 
     28 C2         59.9380   -8.5030   11.1930 C.2       1 GNP1393     0.0000 
     29 N2         58.9470   -9.0830   11.9330 N.pl3     1 GNP1393     0.0000 
     30 N3         60.2360   -7.1930   11.3510 N.2       1 GNP1393     0.0000 
     31 C4         61.1980   -6.6130   10.5710 C.2       1 GNP1393     0.0000 
     32 N3B        61.2030    3.2940   11.0100 N.4       1 GNP1393     0.0000 
     33 H          58.5452   -2.1125    9.9203 H         1 GNP1393     0.0000 
     34 H          58.9494   -0.7206   10.9397 H         1 GNP1393     0.0000 
     35 H          59.0355   -2.6753   12.2822 H         1 GNP1393     0.0000 
     36 H          61.4164   -1.2491   11.9960 H         1 GNP1393     0.0000 
     37 H          62.5083   -2.8568   10.8231 H         1 GNP1393     0.0000 
     38 H          60.9394   -4.8290   12.4149 H         1 GNP1393     0.0000 
     39 H          63.1495   -4.4926    9.3566 H         1 GNP1393     0.0000 
     40 H          60.2297  -10.2366   10.0792 H         1 GNP1393     0.0000 
     41 H          58.2626   -8.4621   12.3154 H         1 GNP1393     0.0000 
     42 H          58.9930  -10.0775   12.0273 H         1 GNP1393     0.0000 
     43 H          60.4739   -1.5325   13.9943 H         1 GNP1393     0.0000 
     44 H          62.6312   -3.2693   13.5981 H         1 GNP1393     0.0000 
@<TRIPOS>BOND
     1    2    1 ar   
     2    3    1 ar   
     3    4    1 ar   
     4   32    1 1    
     5    6    5 ar   
     6    7    5 ar   
     7    8    5 1    
     8   32    5 1    
     9    9    8 1    
    10   10    9 ar   
    11   11    9 ar   
    12   12    9 1    
    13   13   12 1    
    14   14   13 1    
    15   33   13 1    
    16   34   13 1    
    17   15   14 1    
    18   16   14 1    
    19   35   14 1    
    20   20   15 1    
    21   17   16 1    
    22   18   16 1    
    23   36   16 1    
    24   43   17 1    
    25   19   18 1    
    26   20   18 1    
    27   37   18 1    
    28   44   19 1    
    29   21   20 1    
    30   38   20 1    
    31   22   21 1    
    32   31   21 1    
    33   23   22 2    
    34   39   22 1    
    35   24   23 1    
    36   25   24 1    
    37   31   24 2    
    38   26   25 2    
    39   27   25 am   
    40   28   27 1    
    41   40   27 1    
    42   29   28 1    
    43   30   28 2    
    44   41   29 1    
    45   42   29 1    
    46   31   30 1    
@<TRIPOS>SUBSTRUCTURE
     1 GNP1393     1 GROUP   
@<TRIPOS>SET

