#    Name: 2w2x_GSP_2_INTS_M
#    Modification time : Tue Mar 25 03:33:27 2014

@<TRIPOS>MOLECULE
2w2x_GSP_2_INTS_M
   67     0    15     0     0
SMALL
NO_CHARGES


@<TRIPOS>ATOM
      1 N          59.7005   -8.8395  -19.4665 N.am      2 SEC2        0.0000 
      2 N          58.4190   -8.1550  -19.0210 N.am     12 SEL2        0.0000 
      3 N          60.9820   -9.5240  -19.9120 N.am      7 SEP2        0.0000 
      4 CA         59.6365   -9.0685  -21.8395 C.3       5 GLC5        0.0000 
      5 CA         57.7940   -8.9730  -21.4270 C.3      15 GLL5        0.0000 
      6 CA         61.4790   -9.1640  -22.2520 C.3      10 GLP5        0.0000 
      7 CA         57.4165  -10.4615  -19.8670 C.3       5 GLC5        0.0000 
      8 CA         57.0390  -11.9500  -18.3070 C.3      10 GLP5        0.0000 
      9 CA         55.7805   -9.5800  -20.9475 C.3       5 GLC5        0.0000 
     10 CA         53.7670  -10.1870  -20.4680 C.3      10 GLP5        0.0000 
     11 Zn         56.3145   -6.1035  -19.4395 Zn        4 ZIC7        0.0000 
     12 Zn         56.3500   -7.1430  -20.0430 Zn       14 ZIL7        0.0000 
     13 Zn         56.2790   -5.0640  -18.8360 Zn        9 ZIP7        0.0000 
     14 N          55.0130   -7.5030  -20.5515 N.am      2 SEC2        0.0000 
     15 N          56.3500   -7.1430  -20.0430 N.am     12 SEL2        0.0000 
     16 N          53.6760   -7.8630  -21.0600 N.am      7 SEP2        0.0000 
     17 N          59.6205   -5.7800  -20.7420 N.am      2 SEC2        0.0000 
     18 N          58.5600   -6.4700  -21.0040 N.am     12 SEL2        0.0000 
     19 N          60.6810   -5.0900  -20.4800 N.am      7 SEP2        0.0000 
     20 N          58.4480   -6.0495  -22.5130 N.am      2 SEC2        0.0000 
     21 N          58.3360   -5.6290  -24.0220 N.am      7 SEP2        0.0000 
     22 NZ         59.4860   -5.5990  -18.9715 N.4       3 LYC4        0.0000 
     23 NZ         58.2910   -6.1080  -17.4630 N.4      13 LYL4        0.0000 
     24 NZ         60.6810   -5.0900  -20.4800 N.4       8 LYP4        0.0000 
     25 Zn         57.2850   -5.5860  -18.1495 Zn        4 ZIC7        0.0000 
     26 Zn         58.2910   -6.1080  -17.4630 Zn       14 ZIL7        0.0000 
     27 N          58.0185   -5.0180  -16.4975 N.am      2 SEC2        0.0000 
     28 N          58.2910   -6.1080  -17.4630 N.am     12 SEL2        0.0000 
     29 N          57.7460   -3.9280  -15.5320 N.am      7 SEP2        0.0000 
     30 NZ         60.5675   -5.9405  -19.3535 N.4       3 LYC4        0.0000 
     31 NZ         60.4540   -6.7910  -18.2270 N.4      13 LYL4        0.0000 
     32 N          61.2155   -6.8840  -17.0830 N.am      2 SEC2        0.0000 
     33 N          60.4540   -6.7910  -18.2270 N.am     12 SEL2        0.0000 
     34 N          61.9770   -6.9770  -15.9390 N.am      7 SEP2        0.0000 
     35 N          60.4785   -5.6710  -17.1135 N.am      2 SEC2        0.0000 
     36 N          60.5030   -4.5510  -16.0000 N.am      7 SEP2        0.0000 
     37 N          60.5675   -5.9405  -19.3535 N.am      2 SEC2        0.0000 
     38 N          57.7825   -5.7970  -13.8380 N.am      2 SEC2        0.0000 
     39 N          58.3380   -6.8890  -14.8190 N.am     12 SEL2        0.0000 
     40 N          57.2270   -4.7050  -12.8570 N.am      7 SEP2        0.0000 
     41 N          60.5070   -7.6860  -16.3445 N.am      2 SEC2        0.0000 
     42 N          59.0370   -8.3950  -16.7500 N.am     12 SEL2        0.0000 
     43 CA         60.3390  -10.2640  -16.7750 C.3       5 GLC5        0.0000 
     44 CA         59.5350  -10.4920  -15.0090 C.3      15 GLL5        0.0000 
     45 CA         61.1430  -10.0360  -18.5410 C.3      10 GLP5        0.0000 
     46 CA         60.4460   -8.4680  -14.8735 C.3       5 GLC5        0.0000 
     47 CA         61.3570   -6.4440  -14.7380 C.3      10 GLP5        0.0000 
     48 CA         58.3355   -9.3295  -11.5395 C.3       5 GLC5        0.0000 
     49 CA         59.1850  -11.1640  -11.6220 C.3      15 GLL5        0.0000 
     50 CA         57.4860   -7.4950  -11.4570 C.3      10 GLP5        0.0000 
     51 N          63.3880   -5.6060   -8.1015 N.am      2 SEC2        0.0000 
     52 N          63.5110   -7.0150   -8.6540 N.am     12 SEL2        0.0000 
     53 N          63.2650   -4.1970   -7.5490 N.am      7 SEP2        0.0000 
     54 N          62.6765   -6.4840   -7.3090 N.am      2 SEC2        0.0000 
     55 N          61.8420   -5.9530   -5.9640 N.am      7 SEP2        0.0000 
     56 O          64.8545   -8.8075   -7.3980 O.2       1 ALC1        0.0000 
     57 O          63.7860   -9.1860   -8.0350 O.2      11 ALL1        0.0000 
     58 O          65.9230   -8.4290   -6.7610 O.2       6 ALP1        0.0000 
     59 O          64.9100   -9.8235   -6.9900 O.2       1 ALC1        0.0000 
     60 O          66.0340  -10.4610   -5.9450 O.2       6 ALP1        0.0000 
     61 O          65.0070  -10.9655   -6.7125 O.2       1 ALC1        0.0000 
     62 O          63.9800  -11.4700   -7.4800 O.2      11 ALL1        0.0000 
     63 CA         57.7411  -11.4226  -14.9001 C.3       5 GLC5        0.0000 
     64 CA         59.8500  -11.5130  -13.9320 C.3      15 GLL5        0.0000 
     65 CA         56.2810  -11.4820  -16.0930 C.3      10 GLP5        0.0000 
     66 CA         59.4498  -10.1290   -9.9842 C.3       5 GLC5        0.0000 
     67 CA         58.9590   -9.1010   -8.2620 C.3      10 GLP5        0.0000 
@<TRIPOS>BOND
@<TRIPOS>SUBSTRUCTURE
     1 ALC1       56 GROUP        1 X    ALC  0     ROOT ALC X 1
     2 SEC2        1 GROUP        1 X    SEC  0     **** SEC X 2
     3 LYC4       22 GROUP        1 X    LYC  0     **** LYC X 4
     4 ZIC7       11 GROUP        1 X    ZIC  0     **** ZIC X 5
     5 GLC5        4 GROUP        1 X    GLC  0     **** GLC X 6
     6 ALP1       58 GROUP        1 Y    ALP  0     ROOT ALP Y 8
     7 SEP2        3 GROUP        1 Y    SEP  0     **** SEP Y 9
     8 LYP4       24 GROUP        1 Y    LYP  0     **** LYP Y 11
     9 ZIP7       13 GROUP        1 Y    ZIP  0     **** ZIP Y 12
    10 GLP5        6 GROUP        1 Y    GLP  0     **** GLP Y 13
    11 ALL1       57 GROUP        1 Z    ALL  0     ROOT ALL Z 15
    12 SEL2        2 GROUP        1 Z    SEL  0     **** SEL Z 16
    13 LYL4       23 GROUP        1 Z    LYL  0     **** LYL Z 18
    14 ZIL7       12 GROUP        1 Z    ZIL  0     **** ZIL Z 19
    15 GLL5        5 GROUP        1 Z    GLL  0     **** GLL Z 20
@<TRIPOS>SET

