#    Name: 2w2x_GSP_2_ligand
#    Modification time : Tue Mar 25 03:33:27 2014

@<TRIPOS>MOLECULE
2w2x_GSP_2_ligand
   45    47     1     0     0
SMALL
NO_CHARGES


@<TRIPOS>ATOM
      1 PG         57.7770   -7.6280  -20.3870 P.3       1 GSP1178     0.0000 
      2 O3B        58.4190   -8.1550  -19.0210 O.3       1 GSP1178     0.0000 
      3 S1G        57.7940   -8.9730  -21.4270 S.2       1 GSP1178     0.0000 
      4 O2G        56.3500   -7.1430  -20.0430 O.3       1 GSP1178     0.0000 
      5 O3G        58.5600   -6.4700  -21.0040 O.3       1 GSP1178     0.0000 
      6 PB         59.0950   -7.2610  -17.8700 P.3       1 GSP1178     0.0000 
      7 O1B        58.2910   -6.1080  -17.4630 O.co2     1 GSP1178     0.0000 
      8 O2B        60.4540   -6.7910  -18.2270 O.co2     1 GSP1178     0.0000 
      9 PA         58.2230   -8.2630  -15.3680 P.3       1 GSP1178     0.0000 
     10 O1A        56.8100   -8.6540  -15.5670 O.co2     1 GSP1178     0.0000 
     11 O2A        58.3380   -6.8890  -14.8190 O.co2     1 GSP1178     0.0000 
     12 O3A        59.0370   -8.3950  -16.7500 O.3       1 GSP1178     0.0000 
     13 O5'        58.9800   -9.3310  -14.4380 O.3       1 GSP1178     0.0000 
     14 C5'        59.5350  -10.4920  -15.0090 C.3       1 GSP1178     0.0000 
     15 C4'        59.8500  -11.5130  -13.9320 C.3       1 GSP1178     0.0000 
     16 O4'        60.9660  -11.0770  -13.1780 O.3       1 GSP1178     0.0000 
     17 C3'        58.7100  -11.7240  -12.9440 C.3       1 GSP1178     0.0000 
     18 O3'        58.6080  -13.1080  -12.7550 O.3       1 GSP1178     0.0000 
     19 C2'        59.1850  -11.1640  -11.6220 C.3       1 GSP1178     0.0000 
     20 O2'        58.8250  -12.0110  -10.5380 O.3       1 GSP1178     0.0000 
     21 C1'        60.6960  -11.1500  -11.7910 C.3       1 GSP1178     0.0000 
     22 N9         61.2590   -9.9550  -11.1800 N.pl3     1 GSP1178     0.0000 
     23 C8         61.0430   -8.6780  -11.6190 C.2       1 GSP1178     0.0000 
     24 N7         61.7390   -7.8370  -10.8250 N.2       1 GSP1178     0.0000 
     25 C5         62.4040   -8.5670   -9.8920 C.2       1 GSP1178     0.0000 
     26 C6         63.2510   -8.2040   -8.8500 C.2       1 GSP1178     0.0000 
     27 O6         63.5110   -7.0150   -8.6540 O.2       1 GSP1178     0.0000 
     28 N1         63.7860   -9.1860   -8.0350 N.am      1 GSP1178     0.0000 
     29 C2         63.4800  -10.5170   -8.2650 C.2       1 GSP1178     0.0000 
     30 N2         63.9800  -11.4700   -7.4800 N.pl3     1 GSP1178     0.0000 
     31 N3         62.6430  -10.8650   -9.3090 N.2       1 GSP1178     0.0000 
     32 C4         62.1100   -9.9090  -10.1090 C.2       1 GSP1178     0.0000 
     33 H          60.4713  -10.2790  -15.5509 H         1 GSP1178     0.0000 
     34 H          58.8482  -10.9674  -15.7288 H         1 GSP1178     0.0000 
     35 H          60.0642  -12.4651  -14.4030 H         1 GSP1178     0.0000 
     36 H          57.8591  -11.2596  -13.2602 H         1 GSP1178     0.0000 
     37 H          58.8510  -10.1702  -11.5290 H         1 GSP1178     0.0000 
     38 H          61.1004  -12.0283  -11.3576 H         1 GSP1178     0.0000 
     39 H          60.4897   -8.4326  -12.3646 H         1 GSP1178     0.0000 
     40 H          64.4110   -8.9280   -7.2583 H         1 GSP1178     0.0000 
     41 H          63.7221  -12.4087   -7.7087 H         1 GSP1178     0.0000 
     42 H          64.5682  -11.1609   -6.7327 H         1 GSP1178     0.0000 
     43 H          59.2876   -6.2709  -20.3475 H         1 GSP1178     0.0000 
     44 H          58.8468  -13.2563  -11.7954 H         1 GSP1178     0.0000 
     45 H          59.6643  -12.1205  -10.0055 H         1 GSP1178     0.0000 
@<TRIPOS>BOND
     1    2    1 1    
     2    3    1 2    
     3    4    1 1    
     4    5    1 1    
     5    6    2 1    
     6   43    5 1    
     7    7    6 ar   
     8    8    6 ar   
     9   12    6 1    
    10   10    9 ar   
    11   11    9 ar   
    12   12    9 1    
    13   13    9 1    
    14   14   13 1    
    15   15   14 1    
    16   33   14 1    
    17   34   14 1    
    18   16   15 1    
    19   17   15 1    
    20   35   15 1    
    21   21   16 1    
    22   18   17 1    
    23   19   17 1    
    24   36   17 1    
    25   44   18 1    
    26   20   19 1    
    27   21   19 1    
    28   37   19 1    
    29   45   20 1    
    30   22   21 1    
    31   38   21 1    
    32   23   22 1    
    33   32   22 1    
    34   24   23 2    
    35   39   23 1    
    36   25   24 1    
    37   26   25 1    
    38   32   25 2    
    39   27   26 2    
    40   28   26 am   
    41   29   28 1    
    42   40   28 1    
    43   30   29 1    
    44   31   29 2    
    45   41   30 1    
    46   42   30 1    
    47   32   31 1    
@<TRIPOS>SUBSTRUCTURE
     1 GSP1178     1 GROUP   
@<TRIPOS>SET

