#    Name: 3ts4_EEG_1_INTS_M
#    Modification time : Mon Mar 24 20:52:11 2014

@<TRIPOS>MOLECULE
3ts4_EEG_1_INTS_M
   72     0     9     0     0
SMALL
NO_CHARGES


@<TRIPOS>ATOM
      1 N          11.1995   26.5910    4.3225 N.am      1 SEC2        0.0000 
      2 N          10.2960   26.6000    3.2930 N.am      7 SEL2        0.0000 
      3 N          12.1030   26.5820    5.3520 N.am      4 SEP2        0.0000 
      4 N          11.2430   25.2980    3.8160 N.am      1 SEC2        0.0000 
      5 N          12.1900   23.9960    4.3390 N.am      4 SEP2        0.0000 
      6 CA          9.3275   25.8430    5.2585 C.3       3 GLC5        0.0000 
      7 CA          7.9050   26.4690    3.6460 C.3       9 GLL5        0.0000 
      8 CA         10.7500   25.2170    6.8710 C.3       6 GLP5        0.0000 
      9 CA          5.8000   21.6670    6.6345 C.3       3 GLC5        0.0000 
     10 CA          5.2110   23.4950    6.0110 C.3       9 GLL5        0.0000 
     11 CA          6.3890   19.8390    7.2580 C.3       6 GLP5        0.0000 
     12 CA          4.6080   22.1145    4.7455 C.3       3 GLC5        0.0000 
     13 CA          4.0050   20.7340    3.4800 C.3       6 GLP5        0.0000 
     14 CA          3.3655   22.1460    4.9345 C.3       3 GLC5        0.0000 
     15 CA          2.7260   23.5580    6.3890 C.3       9 GLL5        0.0000 
     16 CA         -1.0920   25.8125    8.5440 C.3       3 GLC5        0.0000 
     17 CA         -1.4140   24.7630    6.6430 C.3       9 GLL5        0.0000 
     18 CA         -0.7700   26.8620   10.4450 C.3       6 GLP5        0.0000 
     19 CA         -3.0910   23.2490    9.9435 C.3       3 GLC5        0.0000 
     20 CA         -3.0990   22.9760    7.9370 C.3       9 GLL5        0.0000 
     21 CA         -3.0830   23.5220   11.9500 C.3       6 GLP5        0.0000 
     22 CA         -2.1180   21.9695    9.8775 C.3       3 GLC5        0.0000 
     23 CA         -1.7380   22.7380    7.9000 C.3       9 GLL5        0.0000 
     24 CA         -2.4980   21.2010   11.8550 C.3       6 GLP5        0.0000 
     25 CA          7.5405   24.9000    6.7285 C.3       3 GLC5        0.0000 
     26 CA          6.3380   23.8440    5.3340 C.3       9 GLL5        0.0000 
     27 CA          8.7430   25.9560    8.1230 C.3       6 GLP5        0.0000 
     28 CA          7.4875   22.3140    6.0295 C.3       3 GLC5        0.0000 
     29 CA          8.6370   20.7840    6.7250 C.3       6 GLP5        0.0000 
     30 CA         11.9675   27.0550    1.6015 C.3       3 GLC5        0.0000 
     31 CA         10.1740   27.1430    0.5750 C.3       9 GLL5        0.0000 
     32 CA         13.7610   26.9670    2.6280 C.3       6 GLP5        0.0000 
     33 Zn          6.4555   24.8070   -0.6975 Zn        2 ZIC7        0.0000 
     34 Zn          7.3120   25.4190   -0.7680 Zn        8 ZIL7        0.0000 
     35 Zn          5.5990   24.1950   -0.6270 Zn        5 ZIP7        0.0000 
     36 Zn          6.7205   23.9090   -0.1755 Zn        2 ZIC7        0.0000 
     37 Zn          7.8420   23.6230    0.2760 Zn        8 ZIL7        0.0000 
     38 N           8.2530   22.7825    1.1640 N.am      1 SEC2        0.0000 
     39 N           7.8420   23.6230    0.2760 N.am      7 SEL2        0.0000 
     40 N           8.6640   21.9420    2.0520 N.am      4 SEP2        0.0000 
     41 CA         12.1735   30.2395    1.4525 C.3       3 GLC5        0.0000 
     42 CA         10.3470   31.0270    0.7240 C.3       9 GLL5        0.0000 
     43 CA         14.0000   29.4520    2.1810 C.3       6 GLP5        0.0000 
     44 CA          2.4613   21.1973    8.9982 C.3       3 GLC5        0.0000 
     45 CA          2.8430   22.5900    7.7400 C.3       9 GLL5        0.0000 
     46 CA          2.9000   19.8030   10.0480 C.3       6 GLP5        0.0000 
     47 CA          3.9538   26.7923    4.4337 C.3       3 GLC5        0.0000 
     48 CA          4.9870   25.1020    3.7560 C.3       9 GLL5        0.0000 
     49 CA          3.4960   28.6550    4.7660 C.3       6 GLP5        0.0000 
     50 CA          5.5697   25.0503    7.1158 C.3       3 GLC5        0.0000 
     51 CA          5.3650   26.4310    8.5590 C.3       6 GLP5        0.0000 
     52 CA          3.9983   23.1045    3.7538 C.3       3 GLC5        0.0000 
     53 CA          3.9630   23.9550    5.5660 C.3       9 GLL5        0.0000 
     54 CA          4.0970   21.8530    2.5010 C.3       6 GLP5        0.0000 
     55 CA          3.9438   25.5375    6.4842 C.3       3 GLC5        0.0000 
     56 CA          3.8360   24.7570    4.4470 C.3       9 GLL5        0.0000 
     57 CA          3.9880   26.7190    7.9620 C.3       6 GLP5        0.0000 
     58 CA          3.0406   25.1150    7.3036 C.3       3 GLC5        0.0000 
     59 CA          1.4020   23.9480    6.2260 C.3       9 GLL5        0.0000 
     60 CA         -5.0512   25.0390    6.1128 C.3       3 GLC5        0.0000 
     61 CA         -2.7780   25.0010    6.6840 C.3       9 GLL5        0.0000 
     62 CA         -6.9090   25.5170    5.2220 C.3       6 GLP5        0.0000 
     63 CA         -1.8426   23.1111    5.3739 C.3       3 GLC5        0.0000 
     64 CA         -1.7160   21.6230    3.9310 C.3       6 GLP5        0.0000 
     65 CA         -2.0673   22.2400    5.9247 C.3       3 GLC5        0.0000 
     66 CA          5.6349   23.3704    3.1775 C.3       3 GLC5        0.0000 
     67 CA          5.1470   22.3350    1.7990 C.3       6 GLP5        0.0000 
     68 CA          0.4866   21.5996    6.2877 C.3       3 GLC5        0.0000 
     69 CA         -0.1170   20.0690    5.1370 C.3       6 GLP5        0.0000 
     70 CA         11.1520   24.3855   -0.7592 C.3       3 GLC5        0.0000 
     71 CA          9.5700   25.0040   -0.5840 C.3       9 GLL5        0.0000 
     72 CA         12.6390   23.0300   -0.8760 C.3       6 GLP5        0.0000 
@<TRIPOS>BOND
@<TRIPOS>SUBSTRUCTURE
     1 SEC2        1 GROUP        1 X    SEC  0     ROOT SEC X 2
     2 ZIC7       33 GROUP        1 X    ZIC  0     **** ZIC X 5
     3 GLC5        6 GROUP        1 X    GLC  0     **** GLC X 6
     4 SEP2        3 GROUP        1 Y    SEP  0     ROOT SEP Y 9
     5 ZIP7       35 GROUP        1 Y    ZIP  0     **** ZIP Y 12
     6 GLP5        8 GROUP        1 Y    GLP  0     **** GLP Y 13
     7 SEL2        2 GROUP        1 Z    SEL  0     ROOT SEL Z 16
     8 ZIL7       34 GROUP        1 Z    ZIL  0     **** ZIL Z 19
     9 GLL5        7 GROUP        1 Z    GLL  0     **** GLL Z 20
@<TRIPOS>SET

