#    Name: 3ts4_EEG_1_ligand
#    Modification time : Mon Mar 24 20:52:12 2014

@<TRIPOS>MOLECULE
3ts4_EEG_1_ligand
   69    71     1     0     0
SMALL
NO_CHARGES


@<TRIPOS>ATOM
      1 O2         10.2960   26.6000    3.2930 O.2       1 EEG306      0.0000 
      2 S7          2.8430   22.5900    7.7400 S.3       1 EEG306      0.0000 
      3 C11         9.1700   26.7020    2.7720 C.2       1 EEG306      0.0000 
      4 C12         7.9050   26.4690    3.6460 C.3       1 EEG306      0.0000 
      5 C13         7.4490   25.0310    3.4090 C.3       1 EEG306      0.0000 
      6 C14         4.9870   25.1020    3.7560 C.ar      1 EEG306      0.0000 
      7 C15         5.2110   23.4950    6.0110 C.ar      1 EEG306      0.0000 
      8 C16         3.9630   23.9550    5.5660 C.ar      1 EEG306      0.0000 
      9 C17         3.8360   24.7570    4.4470 C.ar      1 EEG306      0.0000 
     10 C18         2.7260   23.5580    6.3890 C.2       1 EEG306      0.0000 
     11 C19         1.4020   23.9480    6.2260 C.2       1 EEG306      0.0000 
     12 C20         0.5550   23.3870    7.2140 C.2       1 EEG306      0.0000 
     13 C21        -0.9070   23.6320    7.2560 C.ar      1 EEG306      0.0000 
     14 C22        -1.4140   24.7630    6.6430 C.ar      1 EEG306      0.0000 
     15 C23        -2.7780   25.0010    6.6840 C.ar      1 EEG306      0.0000 
     16 C24        -3.6090   24.1210    7.3230 C.ar      1 EEG306      0.0000 
     17 C25        -3.0990   22.9760    7.9370 C.ar      1 EEG306      0.0000 
     18 C26        -1.7380   22.7380    7.9000 C.ar      1 EEG306      0.0000 
     19 C27         6.2070   24.6350    4.1910 C.ar      1 EEG306      0.0000 
     20 C28         6.3380   23.8440    5.3340 C.ar      1 EEG306      0.0000 
     21 C29         1.2020   22.5930    8.1570 C.2       1 EEG306      0.0000 
     22 N2          8.9990   26.9740    1.3920 N.am      1 EEG306      0.0000 
     23 C7         10.1740   27.1430    0.5750 C.3       1 EEG306      0.0000 
     24 C6         10.6320   28.5370    0.3510 C.2       1 EEG306      0.0000 
     25 O1         11.6390   28.7550   -0.3700 O.2       1 EEG306      0.0000 
     26 C8          9.7600   26.4780   -0.7010 C.3       1 EEG306      0.0000 
     27 C9          9.5700   25.0040   -0.5840 C.3       1 EEG306      0.0000 
     28 C10         8.0960   24.6090   -0.3200 C.2       1 EEG306      0.0000 
     29 O4E         7.3120   25.4190   -0.7680 O.co2     1 EEG306      0.0000 
     30 O4          7.8420   23.6230    0.2760 O.co2     1 EEG306      0.0000 
     31 N1          9.9160   29.5950    0.9410 N.am      1 EEG306      0.0000 
     32 C2         10.3470   31.0270    0.7240 C.3       1 EEG306      0.0000 
     33 C1         10.5670   31.6680    1.9950 C.2       1 EEG306      0.0000 
     34 O9          9.9440   31.2660    3.0430 O.2       1 EEG306      0.0000 
     35 C3          9.3400   31.8540   -0.0930 C.3       1 EEG306      0.0000 
     36 C4          8.5150   31.1890   -0.9620 C.3       1 EEG306      0.0000 
     37 C5          9.0700   31.1520   -2.4250 C.2       1 EEG306      0.0000 
     38 O8E         9.6360   30.0260   -2.8320 O.co2     1 EEG306      0.0000 
     39 O8          9.0260   32.1650   -3.1490 O.co2     1 EEG306      0.0000 
     40 N9         11.5260   32.8040    2.0900 N.am      1 EEG306      0.0000 
     41 H           7.1398   27.1520    3.3376 H         1 EEG306      0.0000 
     42 H           8.1650   26.6063    4.6759 H         1 EEG306      0.0000 
     43 H           8.2750   24.3478    3.6740 H         1 EEG306      0.0000 
     44 H           7.2556   24.8924    2.3308 H         1 EEG306      0.0000 
     45 H           4.9257   25.7034    2.9239 H         1 EEG306      0.0000 
     46 H           5.2537   22.8972    6.8478 H         1 EEG306      0.0000 
     47 H           2.9240   25.0856    4.1381 H         1 EEG306      0.0000 
     48 H           1.0810   24.5343    5.5238 H         1 EEG306      0.0000 
     49 H          -0.7885   25.4186    6.1634 H         1 EEG306      0.0000 
     50 H          -3.1614   25.8461    6.2293 H         1 EEG306      0.0000 
     51 H          -4.6297   24.2961    7.3579 H         1 EEG306      0.0000 
     52 H          -3.7315   22.3231    8.4082 H         1 EEG306      0.0000 
     53 H          -1.3478   21.8994    8.3500 H         1 EEG306      0.0000 
     54 H           7.2646   23.5434    5.6405 H         1 EEG306      0.0000 
     55 H           0.9678   22.1233    8.8732 H         1 EEG306      0.0000 
     56 H           8.0851   27.0494    0.9823 H         1 EEG306      0.0000 
     57 H          10.9846   26.5362    0.9864 H         1 EEG306      0.0000 
     58 H          10.5204   26.6885   -1.4818 H         1 EEG306      0.0000 
     59 H           8.8178   26.9414   -1.0612 H         1 EEG306      0.0000 
     60 H          10.1803   24.6056    0.2387 H         1 EEG306      0.0000 
     61 H           9.8949   24.5038   -1.5072 H         1 EEG306      0.0000 
     62 H           9.1029   29.4433    1.5206 H         1 EEG306      0.0000 
     63 H          11.2897   31.0169    0.1596 H         1 EEG306      0.0000 
     64 H           9.9568   32.6547   -0.6173 H         1 EEG306      0.0000 
     65 H           8.7547   32.4632    0.6704 H         1 EEG306      0.0000 
     66 H           7.4992   31.6407   -1.0387 H         1 EEG306      0.0000 
     67 H           8.3435   30.1246   -0.6801 H         1 EEG306      0.0000 
     68 H          11.6173   33.2287    2.9907 H         1 EEG306      0.0000 
     69 H          12.0013   33.0504    1.2454 H         1 EEG306      0.0000 
@<TRIPOS>BOND
     1    3    1 2    
     2   10    2 1    
     3   21    2 1    
     4    4    3 1    
     5   22    3 am   
     6    5    4 1    
     7   41    4 1    
     8   42    4 1    
     9   19    5 1    
    10   43    5 1    
    11   44    5 1    
    12    9    6 ar   
    13   19    6 ar   
    14   45    6 1    
    15    8    7 ar   
    16   20    7 ar   
    17   46    7 1    
    18    9    8 ar   
    19   10    8 1    
    20   47    9 1    
    21   11   10 2    
    22   12   11 1    
    23   48   11 1    
    24   13   12 1    
    25   21   12 2    
    26   14   13 ar   
    27   18   13 ar   
    28   15   14 ar   
    29   49   14 1    
    30   16   15 ar   
    31   50   15 1    
    32   17   16 ar   
    33   51   16 1    
    34   18   17 ar   
    35   52   17 1    
    36   53   18 1    
    37   20   19 ar   
    38   54   20 1    
    39   55   21 1    
    40   23   22 1    
    41   56   22 1    
    42   24   23 1    
    43   26   23 1    
    44   57   23 1    
    45   25   24 2    
    46   31   24 am   
    47   27   26 1    
    48   58   26 1    
    49   59   26 1    
    50   28   27 1    
    51   60   27 1    
    52   61   27 1    
    53   29   28 ar   
    54   30   28 ar   
    55   32   31 1    
    56   62   31 1    
    57   33   32 1    
    58   35   32 1    
    59   63   32 1    
    60   34   33 2    
    61   40   33 am   
    62   36   35 1    
    63   64   35 1    
    64   65   35 1    
    65   37   36 1    
    66   66   36 1    
    67   67   36 1    
    68   38   37 ar   
    69   39   37 ar   
    70   68   40 1    
    71   69   40 1    
@<TRIPOS>SUBSTRUCTURE
     1 EEG306      1 GROUP   
@<TRIPOS>SET

