#    Name: 4mbl_26L_1_INTS_M
#    Modification time : Tue Mar 25 12:07:32 2014

@<TRIPOS>MOLECULE
4mbl_26L_1_INTS_M
   69     0     9     0     0
SMALL
NO_CHARGES


@<TRIPOS>ATOM
      1 O          40.1625    6.6920    4.6020 O.2       1 ALC1        0.0000 
      2 O          39.7570    5.3910    4.8560 O.2       7 ALL1        0.0000 
      3 O          40.5680    7.9930    4.3480 O.2       4 ALP1        0.0000 
      4 CA         37.9940    1.9380    4.5005 C.3       3 GLC5        0.0000 
      5 CA         39.9930    2.9580    4.3780 C.3       9 GLL5        0.0000 
      6 CA         35.9950    0.9180    4.6230 C.3       6 GLP5        0.0000 
      7 CA         39.8340   -0.1250    5.6585 C.3       3 GLC5        0.0000 
      8 CA         40.5250    1.6450    4.9470 C.3       9 GLL5        0.0000 
      9 CA         39.1430   -1.8950    6.3700 C.3       6 GLP5        0.0000 
     10 CA         42.5210   -0.2735    4.5625 C.3       3 GLC5        0.0000 
     11 CA         42.0520    1.6970    5.0560 C.3       9 GLL5        0.0000 
     12 CA         42.9900   -2.2440    4.0690 C.3       6 GLP5        0.0000 
     13 CA         43.4305    5.4165    6.1715 C.3       3 GLC5        0.0000 
     14 CA         41.8880    4.2470    5.3730 C.3       9 GLL5        0.0000 
     15 CA         44.9730    6.5860    6.9700 C.3       6 GLP5        0.0000 
     16 CA         36.5435    2.0000   -0.5495 C.3       3 GLC5        0.0000 
     17 CA         36.7920    3.4670    0.8670 C.3       9 GLL5        0.0000 
     18 CA         36.2950    0.5330   -1.9660 C.3       6 GLP5        0.0000 
     19 N          36.4905    3.0440   -1.9350 N.am      2 SEC2        0.0000 
     20 N          37.8410    3.4020   -1.3400 N.am      8 SEL2        0.0000 
     21 N          35.1400    2.6860   -2.5300 N.am      5 SEP2        0.0000 
     22 CA         41.0975    1.7525   -3.4415 C.3       3 GLC5        0.0000 
     23 CA         42.1340    2.5810   -1.8830 C.3       9 GLL5        0.0000 
     24 CA         40.0610    0.9240   -5.0000 C.3       6 GLP5        0.0000 
     25 CA         42.8825    1.6335   -4.0040 C.3       3 GLC5        0.0000 
     26 CA         43.4620    2.2620   -1.9360 C.3       9 GLL5        0.0000 
     27 CA         42.3030    1.0050   -6.0720 C.3       6 GLP5        0.0000 
     28 CA         41.6855    4.3355    0.8635 C.3       3 GLC5        0.0000 
     29 CA         42.1320    2.3590    0.5040 C.3       9 GLL5        0.0000 
     30 CA         41.2390    6.3120    1.2230 C.3       6 GLP5        0.0000 
     31 CA         44.5930    3.7790    1.8750 C.3       3 GLC5        0.0000 
     32 CA         44.2410    1.7580    1.6780 C.3       9 GLL5        0.0000 
     33 CA         44.9450    5.8000    2.0720 C.3       6 GLP5        0.0000 
     34 CA         35.1363    2.8570    1.5185 C.3       3 GLC5        0.0000 
     35 CA         37.0690    3.4110    2.2050 C.3       9 GLL5        0.0000 
     36 CA         33.3420    2.2750    1.5010 C.3       6 GLP5        0.0000 
     37 CA         37.6653    1.3845    1.2505 C.3       3 GLC5        0.0000 
     38 CA         38.4000   -0.6700    0.9650 C.3       6 GLP5        0.0000 
     39 CA         36.6547    5.0985    0.4610 C.3       3 GLC5        0.0000 
     40 CA         36.3790    6.7580   -0.6140 C.3       6 GLP5        0.0000 
     41 CA         38.9788    1.1547    0.4527 C.3       3 GLC5        0.0000 
     42 CA         39.1270    3.0300    0.5100 C.3       9 GLL5        0.0000 
     43 CA         40.3983    4.6457    0.5817 C.3       3 GLC5        0.0000 
     44 CA         43.2200    0.6358   -2.2168 C.3       3 GLC5        0.0000 
     45 CA         43.6420   -1.1500   -2.5240 C.3       6 GLP5        0.0000 
     46 CA         43.2715    3.4002   -3.6963 C.3       3 GLC5        0.0000 
     47 CA         43.7450    4.3790   -5.4830 C.3       6 GLP5        0.0000 
     48 CA         42.5337    4.3624   -1.7090 C.3       3 GLC5        0.0000 
     49 CA         42.4410    6.2940   -1.8130 C.3       6 GLP5        0.0000 
     50 CA         44.1825   -0.0930    1.5535 C.3       3 GLC5        0.0000 
     51 CA         43.5130    2.0340    0.4920 C.3       9 GLL5        0.0000 
     52 CA         44.4880   -2.0820    2.0220 C.3       6 GLP5        0.0000 
     53 CA         41.6972    0.4706    0.3139 C.3       3 GLC5        0.0000 
     54 CA         40.7430   -1.3200    0.4220 C.3       6 GLP5        0.0000 
     55 CA         44.6295    3.6894   -0.3725 C.3       3 GLC5        0.0000 
     56 CA         45.5880    5.2990   -0.3190 C.3       6 GLP5        0.0000 
     57 CA         44.1844    0.3664   -1.4815 C.3       3 GLC5        0.0000 
     58 CA         44.1960    1.9890   -0.7520 C.3       9 GLL5        0.0000 
     59 CA         47.2987    0.4912   -0.7882 C.3       3 GLC5        0.0000 
     60 CA         45.5990    1.7540   -0.7480 C.3       9 GLL5        0.0000 
     61 CA         48.6670   -0.6450   -1.4140 C.3       6 GLP5        0.0000 
     62 CA         47.4223    2.5693   -1.2683 C.3       3 GLC5        0.0000 
     63 CA         46.2620    1.5010    0.4230 C.3       9 GLL5        0.0000 
     64 CA         48.9140    3.5110   -2.3740 C.3       6 GLP5        0.0000 
     65 CA         45.2073   -0.2855    1.5248 C.3       3 GLC5        0.0000 
     66 CA         47.7987    1.9225    1.6618 C.3       3 GLC5        0.0000 
     67 CA         45.5910    1.5210    1.6320 C.3       9 GLL5        0.0000 
     68 CA         49.6710    2.3340    2.2960 C.3       6 GLP5        0.0000 
     69 CA         45.6744    3.4366    0.2079 C.3       3 GLC5        0.0000 
@<TRIPOS>BOND
@<TRIPOS>SUBSTRUCTURE
     1 ALC1        1 GROUP        1 X    ALC  0     ROOT ALC X 1
     2 SEC2       19 GROUP        1 X    SEC  0     **** SEC X 2
     3 GLC5        4 GROUP        1 X    GLC  0     **** GLC X 6
     4 ALP1        3 GROUP        1 Y    ALP  0     ROOT ALP Y 8
     5 SEP2       21 GROUP        1 Y    SEP  0     **** SEP Y 9
     6 GLP5        6 GROUP        1 Y    GLP  0     **** GLP Y 13
     7 ALL1        2 GROUP        1 Z    ALL  0     ROOT ALL Z 15
     8 SEL2       20 GROUP        1 Z    SEL  0     **** SEL Z 16
     9 GLL5        5 GROUP        1 Z    GLL  0     **** GLL Z 20
@<TRIPOS>SET

