#    Name: 4mbl_26L_1_ligand
#    Modification time : Tue Mar 25 12:07:32 2014

@<TRIPOS>MOLECULE
4mbl_26L_1_ligand
   51    55     1     0     0
SMALL
NO_CHARGES


@<TRIPOS>ATOM
      1 N1         39.7570    5.3910    4.8560 N.4       1 26L401      0.0000 
      2 C1         40.3720    4.1270    5.2870 C.3       1 26L401      0.0000 
      3 C6         39.9930    2.9580    4.3780 C.3       1 26L401      0.0000 
      4 C5         40.5250    1.6450    4.9470 C.3       1 26L401      0.0000 
      5 C4         42.0520    1.6970    5.0560 C.3       1 26L401      0.0000 
      6 C3         42.5420    2.9360    5.8480 C.3       1 26L401      0.0000 
      7 C2         41.8880    4.2470    5.3730 C.3       1 26L401      0.0000 
      8 N2         38.6050    2.9470    3.9740 N.pl3     1 26L401      0.0000 
      9 C7         38.3500    3.0960    2.6320 C.2       1 26L401      0.0000 
     10 C22        37.0690    3.4110    2.2050 C.2       1 26L401      0.0000 
     11 C21        36.7920    3.4670    0.8670 C.2       1 26L401      0.0000 
     12 N5         37.8630    3.2870    0.0070 N.pl3     1 26L401      0.0000 
     13 C8         39.1270    3.0300    0.5100 C.2       1 26L401      0.0000 
     14 N3         39.3690    2.9170    1.8110 N.2       1 26L401      0.0000 
     15 N4         37.8410    3.4020   -1.3400 N.2       1 26L401      0.0000 
     16 C20        39.1270    3.1090   -1.7280 C.2       1 26L401      0.0000 
     17 C9         39.9880    2.9290   -0.6290 C.2       1 26L401      0.0000 
     18 C10        41.4480    2.6180   -0.6650 C.ar      1 26L401      0.0000 
     19 C19        42.1340    2.5810   -1.8830 C.ar      1 26L401      0.0000 
     20 C18        43.4620    2.2620   -1.9360 C.ar      1 26L401      0.0000 
     21 C17        44.1960    1.9890   -0.7520 C.ar      1 26L401      0.0000 
     22 C12        43.5130    2.0340    0.4920 C.ar      1 26L401      0.0000 
     23 C11        42.1320    2.3590    0.5040 C.ar      1 26L401      0.0000 
     24 C16        45.5990    1.7540   -0.7480 C.ar      1 26L401      0.0000 
     25 C15        46.2620    1.5010    0.4230 C.ar      1 26L401      0.0000 
     26 C14        45.5910    1.5210    1.6320 C.ar      1 26L401      0.0000 
     27 C13        44.2410    1.7580    1.6780 C.ar      1 26L401      0.0000 
     28 H          40.0123    3.8768    6.2999 H         1 26L401      0.0000 
     29 H          40.6257    3.1312    3.4292 H         1 26L401      0.0000 
     30 H          40.2412    0.8267    4.2925 H         1 26L401      0.0000 
     31 H          40.1018    1.4812    5.9332 H         1 26L401      0.0000 
     32 H          42.4859    1.7287    4.0544 H         1 26L401      0.0000 
     33 H          42.4102    0.7966    5.5595 H         1 26L401      0.0000 
     34 H          43.6272    3.0166    5.7376 H         1 26L401      0.0000 
     35 H          42.3166    2.7869    6.9079 H         1 26L401      0.0000 
     36 H          42.1509    5.0446    6.0718 H         1 26L401      0.0000 
     37 H          42.2891    4.5042    4.3899 H         1 26L401      0.0000 
     38 H          37.8903    2.8344    4.6637 H         1 26L401      0.0000 
     39 H          36.3323    3.6013    2.9019 H         1 26L401      0.0000 
     40 H          35.8605    3.6302    0.5163 H         1 26L401      0.0000 
     41 H          39.4257    3.0310   -2.6530 H         1 26L401      0.0000 
     42 H          41.6134    2.8018   -2.7543 H         1 26L401      0.0000 
     43 H          43.9606    2.2128   -2.8413 H         1 26L401      0.0000 
     44 H          41.6446    2.3980    1.4156 H         1 26L401      0.0000 
     45 H          46.1011    1.7795   -1.6489 H         1 26L401      0.0000 
     46 H          47.2783    1.2915    0.4095 H         1 26L401      0.0000 
     47 H          46.1182    1.3546    2.5095 H         1 26L401      0.0000 
     48 H          43.7303    1.7400    2.5746 H         1 26L401      0.0000 
     49 H          39.1701    5.7797    5.5663 H         1 26L401      0.0000 
     50 H          40.4449    6.0820    4.6338 H         1 26L401      0.0000 
     51 H          39.1899    5.2694    4.0414 H         1 26L401      0.0000 
@<TRIPOS>BOND
     1    2    1 1    
     2   49    1 1    
     3   50    1 1    
     4   51    1 1    
     5    3    2 1    
     6    7    2 1    
     7   28    2 1    
     8    4    3 1    
     9    8    3 1    
    10   29    3 1    
    11    5    4 1    
    12   30    4 1    
    13   31    4 1    
    14    6    5 1    
    15   32    5 1    
    16   33    5 1    
    17    7    6 1    
    18   34    6 1    
    19   35    6 1    
    20   36    7 1    
    21   37    7 1    
    22    9    8 1    
    23   38    8 1    
    24   10    9 1    
    25   14    9 2    
    26   11   10 2    
    27   39   10 1    
    28   12   11 1    
    29   40   11 1    
    30   13   12 1    
    31   15   12 1    
    32   14   13 1    
    33   17   13 2    
    34   16   15 2    
    35   17   16 1    
    36   41   16 1    
    37   18   17 1    
    38   19   18 ar   
    39   23   18 ar   
    40   20   19 ar   
    41   42   19 1    
    42   21   20 ar   
    43   43   20 1    
    44   22   21 ar   
    45   24   21 ar   
    46   23   22 ar   
    47   27   22 ar   
    48   44   23 1    
    49   25   24 ar   
    50   45   24 1    
    51   26   25 ar   
    52   46   25 1    
    53   27   26 ar   
    54   47   26 1    
    55   48   27 1    
@<TRIPOS>SUBSTRUCTURE
     1 26L401      1 GROUP   
@<TRIPOS>SET

