#    Name: 1kws_UGA_1_INTS_M
#    Modification time : Tue Mar 25 10:38:53 2014

@<TRIPOS>MOLECULE
1kws_UGA_1_INTS_M
   72     0    15     0     0
SMALL
NO_CHARGES


@<TRIPOS>ATOM
      1 N          20.7115    5.4085   11.3595 N.am      2 SEC2        0.0000 
      2 N          21.9450    4.2680   11.8480 N.am     12 SEL2        0.0000 
      3 N          19.4780    6.5490   10.8710 N.am      7 SEP2        0.0000 
      4 N          22.0725    5.0875   12.8925 N.am      2 SEC2        0.0000 
      5 N          22.2000    5.9070   13.9370 N.am      7 SEP2        0.0000 
      6 O          21.7590    5.2320   11.0740 O.2       1 ALC1        0.0000 
      7 O          21.9450    4.2680   11.8480 O.2      11 ALL1        0.0000 
      8 O          21.5730    6.1960   10.3000 O.2       6 ALP1        0.0000 
      9 CA         20.8120    2.4695   10.0605 C.3       5 GLC5        0.0000 
     10 CA         22.5140    1.9690   11.3190 C.3      15 GLL5        0.0000 
     11 CA         19.1100    2.9700    8.8020 C.3      10 GLP5        0.0000 
     12 O          20.6635    1.7665   11.6520 O.2       1 ALC1        0.0000 
     13 O          21.4210    1.8200   10.4250 O.2      11 ALL1        0.0000 
     14 O          19.9060    1.7130   12.8790 O.2       6 ALP1        0.0000 
     15 CA         23.7970   -0.0130    8.9290 C.3       5 GLC5        0.0000 
     16 CA         23.6720    1.1250   10.7730 C.3      15 GLL5        0.0000 
     17 CA         23.9220   -1.1510    7.0850 C.3      10 GLP5        0.0000 
     18 N          21.9130   -0.7850   10.8000 N.am      2 SEC2        0.0000 
     19 N          23.2980   -0.2480   10.6940 N.am     12 SEL2        0.0000 
     20 N          20.5280   -1.3220   10.9060 N.am      7 SEP2        0.0000 
     21 N          26.1160   -2.0170   10.6915 N.am      2 SEC2        0.0000 
     22 N          25.8560   -0.6710   10.4530 N.am     12 SEL2        0.0000 
     23 N          26.3760   -3.3630   10.9300 N.am      7 SEP2        0.0000 
     24 Zn         22.5755    3.3540   16.3750 Zn        4 ZIC7        0.0000 
     25 Zn         23.5250    3.5690   15.9690 Zn       14 ZIL7        0.0000 
     26 Zn         21.6260    3.1390   16.7810 Zn        9 ZIP7        0.0000 
     27 N          24.4480    3.4730   17.1125 N.am      2 SEC2        0.0000 
     28 N          23.5250    3.5690   15.9690 N.am     12 SEL2        0.0000 
     29 N          25.3710    3.3770   18.2560 N.am      7 SEP2        0.0000 
     30 N          22.1535    3.4990   15.4130 N.am      2 SEC2        0.0000 
     31 N          20.7820    3.4290   14.8570 N.am      7 SEP2        0.0000 
     32 N          22.9575    4.4865   13.7915 N.am      2 SEC2        0.0000 
     33 N          23.7150    3.0660   13.6460 N.am     12 SEL2        0.0000 
     34 N          22.2485    3.2475   14.2515 N.am      2 SEC2        0.0000 
     35 Zn         22.0580    2.1640   16.7895 Zn        4 ZIC7        0.0000 
     36 Zn         22.4900    1.1890   16.7980 Zn       14 ZIL7        0.0000 
     37 NZ         26.0565   -0.4150   16.8885 N.4       3 LYC4        0.0000 
     38 NZ         24.5360   -0.2190   17.1310 N.4      13 LYL4        0.0000 
     39 NZ         27.5770   -0.6110   16.6460 N.4       8 LYP4        0.0000 
     40 CA         23.7670   -1.8290   13.7775 C.3       5 GLC5        0.0000 
     41 CA         21.9400   -0.6740   14.3540 C.3      15 GLL5        0.0000 
     42 CA         25.5940   -2.9840   13.2010 C.3      10 GLP5        0.0000 
     43 N          17.9290   -1.2700   16.4105 N.am      2 SEC2        0.0000 
     44 N          18.9520   -2.0740   15.8710 N.am     12 SEL2        0.0000 
     45 N          16.9060   -0.4660   16.9500 N.am      7 SEP2        0.0000 
     46 O          18.3275   -3.2335   15.9635 O.2       1 ALC1        0.0000 
     47 O          18.9520   -2.0740   15.8710 O.2      11 ALL1        0.0000 
     48 O          17.7030   -4.3930   16.0560 O.2       6 ALP1        0.0000 
     49 CA         22.0945   -3.6630   18.1135 C.3       5 GLC5        0.0000 
     50 CA         21.1190   -2.9840   16.6500 C.3      15 GLL5        0.0000 
     51 CA         23.0700   -4.3420   19.5770 C.3      10 GLP5        0.0000 
     52 O          19.5685   -2.5870   18.2275 O.2       1 ALC1        0.0000 
     53 O          20.3430   -3.5980   17.6630 O.2      11 ALL1        0.0000 
     54 O          18.7940   -1.5760   18.7920 O.2       6 ALP1        0.0000 
     55 CA         19.9720   -4.0295   14.2615 C.3       5 GLC5        0.0000 
     56 CA         21.4370   -3.9390   15.5150 C.3      15 GLL5        0.0000 
     57 CA         18.5070   -4.1200   13.0080 C.3      10 GLP5        0.0000 
     58 CA         21.9395   -4.7365   17.3655 C.3       5 GLC5        0.0000 
     59 CA         22.4420   -5.5340   19.2160 C.3      10 GLP5        0.0000 
     60 CA         21.7610   -4.7135   13.5210 C.3       5 GLC5        0.0000 
     61 CA         22.0850   -5.4880   11.5270 C.3      10 GLP5        0.0000 
     62 O          23.8655   -8.3150   15.9100 O.2       1 ALC1        0.0000 
     63 O          23.6670   -6.8070   16.1810 O.2      11 ALL1        0.0000 
     64 O          24.0640   -9.8230   15.6390 O.2       6 ALP1        0.0000 
     65 CA         19.5870   -2.9770   14.1318 C.3       5 GLC5        0.0000 
     66 CA         20.9580   -1.8240   14.5510 C.3      15 GLL5        0.0000 
     67 CA         19.6477   -0.2513   14.8891 C.3       5 GLC5        0.0000 
     68 CA         20.3760   -1.8440   15.9600 C.3      15 GLL5        0.0000 
     69 CA         18.3830    1.0440   14.5720 C.3      10 GLP5        0.0000 
     70 CA         23.7320   -4.4042   17.9490 C.3       5 GLC5        0.0000 
     71 CA         23.8450   -4.1230   16.1650 C.3      15 GLL5        0.0000 
     72 CA         24.9940   -3.7252   14.7610 C.3       5 GLC5        0.0000 
@<TRIPOS>BOND
@<TRIPOS>SUBSTRUCTURE
     1 ALC1        6 GROUP        1 X    ALC  0     ROOT ALC X 1
     2 SEC2        1 GROUP        1 X    SEC  0     **** SEC X 2
     3 LYC4       37 GROUP        1 X    LYC  0     **** LYC X 4
     4 ZIC7       24 GROUP        1 X    ZIC  0     **** ZIC X 5
     5 GLC5        9 GROUP        1 X    GLC  0     **** GLC X 6
     6 ALP1        8 GROUP        1 Y    ALP  0     ROOT ALP Y 8
     7 SEP2        3 GROUP        1 Y    SEP  0     **** SEP Y 9
     8 LYP4       39 GROUP        1 Y    LYP  0     **** LYP Y 11
     9 ZIP7       26 GROUP        1 Y    ZIP  0     **** ZIP Y 12
    10 GLP5       11 GROUP        1 Y    GLP  0     **** GLP Y 13
    11 ALL1        7 GROUP        1 Z    ALL  0     ROOT ALL Z 15
    12 SEL2        2 GROUP        1 Z    SEL  0     **** SEL Z 16
    13 LYL4       38 GROUP        1 Z    LYL  0     **** LYL Z 18
    14 ZIL7       25 GROUP        1 Z    ZIL  0     **** ZIL Z 19
    15 GLL5       10 GROUP        1 Z    GLL  0     **** GLL Z 20
@<TRIPOS>SET

