#    Name: 1kws_UGA_1_ligand
#    Modification time : Tue Mar 25 10:38:53 2014

@<TRIPOS>MOLECULE
1kws_UGA_1_ligand
   56    58     1     0     0
SMALL
NO_CHARGES


@<TRIPOS>ATOM
      1 C1'        24.2110    3.5020   12.3750 C.3       1 UGA404      0.0000 
      2 C2'        22.9960    3.4450   11.3600 C.3       1 UGA404      0.0000 
      3 O2'        21.9450    4.2680   11.8480 O.3       1 UGA404      0.0000 
      4 C3'        22.5140    1.9690   11.3190 C.3       1 UGA404      0.0000 
      5 O3'        21.4210    1.8200   10.4250 O.3       1 UGA404      0.0000 
      6 C4'        23.6720    1.1250   10.7730 C.3       1 UGA404      0.0000 
      7 O4'        23.2980   -0.2480   10.6940 O.3       1 UGA404      0.0000 
      8 C5'        24.9210    1.2160   11.7140 C.3       1 UGA404      0.0000 
      9 O5'        25.3090    2.6360   11.8700 O.3       1 UGA404      0.0000 
     10 C6'        26.1330    0.4120   11.1820 C.2       1 UGA404      0.0000 
     11 O'P        25.8560   -0.6710   10.4530 O.co2     1 UGA404      0.0000 
     12 O'Q        27.2730    0.7230   11.3850 O.co2     1 UGA404      0.0000 
     13 PB         24.4420    2.9140   15.0300 P.3       1 UGA404      0.0000 
     14 O1B        23.5250    3.5690   15.9690 O.co2     1 UGA404      0.0000 
     15 O2B        25.8830    3.2910   14.9290 O.co2     1 UGA404      0.0000 
     16 O3B        23.7150    3.0660   13.6460 O.3       1 UGA404      0.0000 
     17 O3A        24.4060    1.3600   15.2970 O.3       1 UGA404      0.0000 
     18 PA         23.5760    0.3620   16.1930 P.3       1 UGA404      0.0000 
     19 O1A        22.4900    1.1890   16.7980 O.co2     1 UGA404      0.0000 
     20 O2A        24.5360   -0.2190   17.1310 O.co2     1 UGA404      0.0000 
     21 O5D        23.0570   -0.8130   15.2220 O.3       1 UGA404      0.0000 
     22 C5D        21.9400   -0.6740   14.3540 C.3       1 UGA404      0.0000 
     23 C4D        20.9580   -1.8240   14.5510 C.3       1 UGA404      0.0000 
     24 O4D        21.6090   -3.1240   14.3300 O.3       1 UGA404      0.0000 
     25 C3D        20.3760   -1.8440   15.9600 C.3       1 UGA404      0.0000 
     26 O3D        18.9520   -2.0740   15.8710 O.3       1 UGA404      0.0000 
     27 C2D        21.1190   -2.9840   16.6500 C.3       1 UGA404      0.0000 
     28 O2D        20.3430   -3.5980   17.6630 O.3       1 UGA404      0.0000 
     29 C1D        21.4370   -3.9390   15.5150 C.3       1 UGA404      0.0000 
     30 N1         22.6330   -4.7390   15.8560 N.am      1 UGA404      0.0000 
     31 C6         23.8450   -4.1230   16.1650 C.2       1 UGA404      0.0000 
     32 C2         22.5020   -6.1250   15.8520 C.2       1 UGA404      0.0000 
     33 O2         21.4560   -6.7000   15.5850 O.2       1 UGA404      0.0000 
     34 N3         23.6670   -6.8070   16.1810 N.am      1 UGA404      0.0000 
     35 C4         24.9060   -6.2410   16.5010 C.2       1 UGA404      0.0000 
     36 O4         25.8600   -6.9460   16.7740 O.2       1 UGA404      0.0000 
     37 C5         24.9430   -4.8100   16.4770 C.2       1 UGA404      0.0000 
     38 H          24.5251    4.5281   12.4032 H         1 UGA404      0.0000 
     39 H          23.3524    3.7156   10.4117 H         1 UGA404      0.0000 
     40 H          22.2999    1.6519   12.3024 H         1 UGA404      0.0000 
     41 H          23.9667    1.5105    9.8160 H         1 UGA404      0.0000 
     42 H          24.6398    0.8116   12.6766 H         1 UGA404      0.0000 
     43 H          22.2430   -0.6722   13.2953 H         1 UGA404      0.0000 
     44 H          21.3946    0.2650   14.5371 H         1 UGA404      0.0000 
     45 H          20.1375   -1.7100   13.8532 H         1 UGA404      0.0000 
     46 H          20.6252   -0.9312   16.4317 H         1 UGA404      0.0000 
     47 H          22.0522   -2.5862   17.0087 H         1 UGA404      0.0000 
     48 H          20.5772   -4.5889   15.3978 H         1 UGA404      0.0000 
     49 H          23.8668   -3.0669   16.1436 H         1 UGA404      0.0000 
     50 H          23.6149   -7.8808   16.1919 H         1 UGA404      0.0000 
     51 H          25.8388   -4.3540   16.7074 H         1 UGA404      0.0000 
     52 H          22.1551    5.1846   11.5080 H         1 UGA404      0.0000 
     53 H          20.6191    1.7115   11.0126 H         1 UGA404      0.0000 
     54 H          24.1599   -0.7457   10.5969 H         1 UGA404      0.0000 
     55 H          18.7787   -2.8575   16.4677 H         1 UGA404      0.0000 
     56 H          20.1731   -2.8750   18.3327 H         1 UGA404      0.0000 
@<TRIPOS>BOND
     1    2    1 1    
     2    9    1 1    
     3   16    1 1    
     4   38    1 1    
     5    3    2 1    
     6    4    2 1    
     7   39    2 1    
     8   52    3 1    
     9    5    4 1    
    10    6    4 1    
    11   40    4 1    
    12   53    5 1    
    13    7    6 1    
    14    8    6 1    
    15   41    6 1    
    16   54    7 1    
    17    9    8 1    
    18   10    8 1    
    19   42    8 1    
    20   11   10 ar   
    21   12   10 ar   
    22   14   13 ar   
    23   15   13 ar   
    24   16   13 1    
    25   17   13 1    
    26   18   17 1    
    27   19   18 ar   
    28   20   18 ar   
    29   21   18 1    
    30   22   21 1    
    31   23   22 1    
    32   43   22 1    
    33   44   22 1    
    34   24   23 1    
    35   25   23 1    
    36   45   23 1    
    37   29   24 1    
    38   26   25 1    
    39   27   25 1    
    40   46   25 1    
    41   55   26 1    
    42   28   27 1    
    43   29   27 1    
    44   47   27 1    
    45   56   28 1    
    46   30   29 1    
    47   48   29 1    
    48   31   30 1    
    49   32   30 1    
    50   37   31 2    
    51   49   31 1    
    52   33   32 2    
    53   34   32 1    
    54   35   34 1    
    55   50   34 1    
    56   36   35 2    
    57   37   35 1    
    58   51   37 1    
@<TRIPOS>SUBSTRUCTURE
     1 UGA404      1 GROUP   
@<TRIPOS>SET

