#    Name: 2fvd_LIA_1_INTS_M
#    Modification time : Tue Mar 25 13:09:41 2014

@<TRIPOS>MOLECULE
2fvd_LIA_1_INTS_M
   71     0     9     0     0
SMALL
NO_CHARGES


@<TRIPOS>ATOM
      1 CA          4.2550   28.7290    3.8400 C.3       3 GLC5        0.0000 
      2 CA          4.4250   27.4970    5.3560 C.3       9 GLL5        0.0000 
      3 CA          4.0850   29.9610    2.3240 C.3       6 GLP5        0.0000 
      4 CA          5.9430   29.0655    5.0215 C.3       3 GLC5        0.0000 
      5 CA          7.4610   30.6340    4.6870 C.3       6 GLP5        0.0000 
      6 CA          3.1165   28.9040    4.6130 C.3       3 GLC5        0.0000 
      7 CA          3.4740   27.9120    6.5080 C.3       9 GLL5        0.0000 
      8 CA          2.7590   29.8960    2.7180 C.3       6 GLP5        0.0000 
      9 CA          4.1855   29.0820    9.4230 C.3       3 GLC5        0.0000 
     10 CA          4.2630   28.0220    7.8590 C.3       9 GLL5        0.0000 
     11 CA          4.1080   30.1420   10.9870 C.3       6 GLP5        0.0000 
     12 CA          5.6990   27.0790   10.0125 C.3       3 GLC5        0.0000 
     13 CA          5.0840   26.7430    8.1290 C.3       9 GLL5        0.0000 
     14 CA          6.3140   27.4150   11.8960 C.3       6 GLP5        0.0000 
     15 O           3.8690   30.0925    5.8840 O.2       1 ALC1        0.0000 
     16 O           2.8530   29.1930    6.1450 O.2       7 ALL1        0.0000 
     17 O           4.8850   30.9920    5.6230 O.2       4 ALP1        0.0000 
     18 CA          0.9375   28.4120    5.4805 C.3       3 GLC5        0.0000 
     19 CA          1.7690   29.5320    6.9000 C.3       9 GLL5        0.0000 
     20 CA          0.1060   27.2920    4.0610 C.3       6 GLP5        0.0000 
     21 CA         -0.0365   30.3355    5.9850 C.3       3 GLC5        0.0000 
     22 CA         -1.8420   31.1390    5.0700 C.3       6 GLP5        0.0000 
     23 CA          2.1690   30.7305    8.5380 C.3       3 GLC5        0.0000 
     24 CA          2.5690   31.9290   10.1760 C.3       6 GLP5        0.0000 
     25 CA         -1.5735   28.0250    7.4395 C.3       3 GLC5        0.0000 
     26 CA          0.0490   28.9490    8.3170 C.3       9 GLL5        0.0000 
     27 CA         -3.1960   27.1010    6.5620 C.3       6 GLP5        0.0000 
     28 CA         -0.5945   30.6575   12.2435 C.3       3 GLC5        0.0000 
     29 CA         -1.5100   29.0040   11.1890 C.3       9 GLL5        0.0000 
     30 CA          0.3210   32.3110   13.2980 C.3       6 GLP5        0.0000 
     31 CA          1.3205   28.6830   14.0400 C.3       3 GLC5        0.0000 
     32 CA          0.5550   28.3980   12.2270 C.3       9 GLL5        0.0000 
     33 CA          2.0860   28.9680   15.8530 C.3       6 GLP5        0.0000 
     34 CA          2.3315   29.2700   11.6070 C.3       3 GLC5        0.0000 
     35 CA          0.4380   30.3545   12.7625 C.3       3 GLC5        0.0000 
     36 CA         -6.0245   29.5095    8.4780 C.3       3 GLC5        0.0000 
     37 CA         -4.2020   29.8250    8.7400 C.3       9 GLL5        0.0000 
     38 CA         -7.8470   29.1940    8.2160 C.3       6 GLP5        0.0000 
     39 CA         -4.6875   31.4575    8.6980 C.3       3 GLC5        0.0000 
     40 CA         -5.1730   33.0900    8.6560 C.3       6 GLP5        0.0000 
     41 O           0.1660   33.7970    6.9685 O.2       1 ALC1        0.0000 
     42 O           0.0830   32.6030    7.6390 O.2       7 ALL1        0.0000 
     43 O           0.2490   34.9910    6.2980 O.2       4 ALP1        0.0000 
     44 CA          8.3850   23.8425    7.7375 C.3       3 GLC5        0.0000 
     45 CA          6.1790   23.6620    7.7100 C.3       9 GLL5        0.0000 
     46 CA         10.5910   24.0230    7.7650 C.3       6 GLP5        0.0000 
     47 N           7.9035   26.8545    9.2945 N.am      2 SEC2        0.0000 
     48 N           7.8710   25.5860    8.4490 N.am      8 SEL2        0.0000 
     49 N           7.9360   28.1230   10.1400 N.am      5 SEP2        0.0000 
     50 N           9.3325   24.3980    5.7250 N.am      2 SEC2        0.0000 
     51 N           7.9110   25.0020    6.1680 N.am      8 SEL2        0.0000 
     52 N          10.7540   23.7940    5.2820 N.am      5 SEP2        0.0000 
     53 N           9.0910   25.7610    5.6050 N.am      2 SEC2        0.0000 
     54 N          10.2710   26.5200    5.0420 N.am      5 SEP2        0.0000 
     55 CA          2.5286   26.2095    5.9716 C.3       3 GLC5        0.0000 
     56 CA          0.9070   25.0300    5.9160 C.3       6 GLP5        0.0000 
     57 CA          6.5832   28.1463    7.9495 C.3       3 GLC5        0.0000 
     58 CA          8.4930   28.9100    7.9050 C.3       6 GLP5        0.0000 
     59 CA         -0.8739   30.8005    6.5421 C.3       3 GLC5        0.0000 
     60 CA          0.3640   31.2870    7.6590 C.3       9 GLL5        0.0000 
     61 CA          1.3316   31.1955    9.0951 C.3       3 GLC5        0.0000 
     62 CA         -6.4735   28.4640   10.5407 C.3       3 GLC5        0.0000 
     63 CA         -4.2120   28.2570   10.5240 C.3       9 GLL5        0.0000 
     64 CA         -8.1160   28.8460   10.7050 C.3       6 GLP5        0.0000 
     65 CA         -2.7332   29.0396   13.1225 C.3       3 GLC5        0.0000 
     66 CA         -3.5480   27.6250   11.6160 C.3       9 GLL5        0.0000 
     67 CA         -3.2710   29.6730   14.7590 C.3       6 GLP5        0.0000 
     68 CA         -3.3666   28.3700    7.9428 C.3       3 GLC5        0.0000 
     69 CA         -2.1970   29.6470   10.0640 C.3       9 GLL5        0.0000 
     70 CA         -4.4625   26.7550    9.4577 C.3       3 GLC5        0.0000 
     71 CA         -4.2600   25.5860    8.2660 C.3       6 GLP5        0.0000 
@<TRIPOS>BOND
@<TRIPOS>SUBSTRUCTURE
     1 ALC1       15 GROUP        1 X    ALC  0     ROOT ALC X 1
     2 SEC2       47 GROUP        1 X    SEC  0     **** SEC X 2
     3 GLC5        1 GROUP        1 X    GLC  0     **** GLC X 6
     4 ALP1       17 GROUP        1 Y    ALP  0     ROOT ALP Y 8
     5 SEP2       49 GROUP        1 Y    SEP  0     **** SEP Y 9
     6 GLP5        3 GROUP        1 Y    GLP  0     **** GLP Y 13
     7 ALL1       16 GROUP        1 Z    ALL  0     ROOT ALL Z 15
     8 SEL2       48 GROUP        1 Z    SEL  0     **** SEL Z 16
     9 GLL5        2 GROUP        1 Z    GLL  0     **** GLL Z 20
@<TRIPOS>SET

