#    Name: 2fvd_LIA_1_ligand
#    Modification time : Tue Mar 25 13:09:41 2014

@<TRIPOS>MOLECULE
2fvd_LIA_1_ligand
   51    53     1     0     0
SMALL
NO_CHARGES


@<TRIPOS>ATOM
      1 N1          6.0060   26.4970    6.9800 N.pl3     1 LIA299      0.0000 
      2 C2          5.2280   26.2350    5.7370 C.3       1 LIA299      0.0000 
      3 C3          4.4250   27.4970    5.3560 C.3       1 LIA299      0.0000 
      4 C4          3.4740   27.9120    6.5080 C.3       1 LIA299      0.0000 
      5 C5          4.2630   28.0220    7.8590 C.3       1 LIA299      0.0000 
      6 C6          5.0840   26.7430    8.1290 C.3       1 LIA299      0.0000 
      7 N7          2.8530   29.1930    6.1450 N.pl3     1 LIA299      0.0000 
      8 C8          1.7690   29.5320    6.9000 C.ar      1 LIA299      0.0000 
      9 N9          1.0690   28.5960    7.5970 N.ar      1 LIA299      0.0000 
     10 C10         0.0490   28.9490    8.3170 C.ar      1 LIA299      0.0000 
     11 C11        -0.4000   30.3250    8.4220 C.ar      1 LIA299      0.0000 
     12 C12         0.3640   31.2870    7.6590 C.ar      1 LIA299      0.0000 
     13 N13         1.4370   30.8560    6.9140 N.ar      1 LIA299      0.0000 
     14 C14        -1.5430   30.6550    9.2600 C.2       1 LIA299      0.0000 
     15 O15        -1.9700   31.8210    9.3190 O.2       1 LIA299      0.0000 
     16 C16        -2.1970   29.6470   10.0640 C.ar      1 LIA299      0.0000 
     17 C17        -3.5480   29.2590    9.7500 C.ar      1 LIA299      0.0000 
     18 C18        -4.2120   28.2570   10.5240 C.ar      1 LIA299      0.0000 
     19 C19        -3.5480   27.6250   11.6160 C.ar      1 LIA299      0.0000 
     20 C20        -2.2140   27.9920   11.9500 C.ar      1 LIA299      0.0000 
     21 C21        -1.5100   29.0040   11.1890 C.ar      1 LIA299      0.0000 
     22 O22        -0.1880   29.4010   11.4900 O.3       1 LIA299      0.0000 
     23 C23         0.5550   28.3980   12.2270 C.3       1 LIA299      0.0000 
     24 F24        -4.2020   29.8250    8.7400 F         1 LIA299      0.0000 
     25 F25        -5.4500   27.9070   10.2290 F         1 LIA299      0.0000 
     26 N26         0.0830   32.6030    7.6390 N.pl3     1 LIA299      0.0000 
     27 S27         7.0630   25.2110    7.3100 S.o2      1 LIA299      0.0000 
     28 C28         6.1790   23.6620    7.7100 C.3       1 LIA299      0.0000 
     29 O29         7.8710   25.5860    8.4490 O.2       1 LIA299      0.0000 
     30 O30         7.9110   25.0020    6.1680 O.2       1 LIA299      0.0000 
     31 H           4.5297   25.4175    5.8892 H         1 LIA299      0.0000 
     32 H           5.8938   25.9912    4.9145 H         1 LIA299      0.0000 
     33 H           3.8360   27.2917    4.4691 H         1 LIA299      0.0000 
     34 H           5.1124   28.3112    5.1556 H         1 LIA299      0.0000 
     35 H           2.7296   27.1453    6.6143 H         1 LIA299      0.0000 
     36 H           3.5509   28.1712    8.6623 H         1 LIA299      0.0000 
     37 H           4.9299   28.8743    7.7998 H         1 LIA299      0.0000 
     38 H           5.6477   26.8833    9.0448 H         1 LIA299      0.0000 
     39 H           4.3970   25.9125    8.2490 H         1 LIA299      0.0000 
     40 H           3.2283   29.7246    5.4086 H         1 LIA299      0.0000 
     41 H          -0.5198   28.2556    8.8731 H         1 LIA299      0.0000 
     42 H          -4.0298   26.9101   12.1571 H         1 LIA299      0.0000 
     43 H          -1.7386   27.5438   12.7321 H         1 LIA299      0.0000 
     44 H           0.6744   33.1706    7.0662 H         1 LIA299      0.0000 
     45 H          -0.6922   32.8960    8.1987 H         1 LIA299      0.0000 
     46 H           1.4860   28.7008   12.4310 H         1 LIA299      0.0000 
     47 H           0.1195   28.1805   13.1005 H         1 LIA299      0.0000 
     48 H           0.6306   27.5418   11.7160 H         1 LIA299      0.0000 
     49 H           6.8120   22.9123    7.9028 H         1 LIA299      0.0000 
     50 H           5.5936   23.7655    8.5141 H         1 LIA299      0.0000 
     51 H           5.5925   23.3640    6.9569 H         1 LIA299      0.0000 
@<TRIPOS>BOND
     1    2    1 1    
     2    6    1 1    
     3   27    1 1    
     4    3    2 1    
     5   31    2 1    
     6   32    2 1    
     7    4    3 1    
     8   33    3 1    
     9   34    3 1    
    10    5    4 1    
    11    7    4 1    
    12   35    4 1    
    13    6    5 1    
    14   36    5 1    
    15   37    5 1    
    16   38    6 1    
    17   39    6 1    
    18    8    7 1    
    19   40    7 1    
    20    9    8 ar   
    21   13    8 ar   
    22   10    9 ar   
    23   11   10 ar   
    24   41   10 1    
    25   12   11 ar   
    26   14   11 1    
    27   13   12 ar   
    28   26   12 1    
    29   15   14 2    
    30   16   14 1    
    31   17   16 ar   
    32   21   16 ar   
    33   18   17 ar   
    34   24   17 1    
    35   19   18 ar   
    36   25   18 1    
    37   20   19 ar   
    38   42   19 1    
    39   21   20 ar   
    40   43   20 1    
    41   22   21 1    
    42   23   22 1    
    43   46   23 1    
    44   47   23 1    
    45   48   23 1    
    46   44   26 1    
    47   45   26 1    
    48   28   27 1    
    49   29   27 2    
    50   30   27 2    
    51   49   28 1    
    52   50   28 1    
    53   51   28 1    
@<TRIPOS>SUBSTRUCTURE
     1 LIA299      1 GROUP   
@<TRIPOS>SET

