#    Name: 2pw3_CMP_2_INTS_M
#    Modification time : Mon Mar 24 19:26:29 2014

@<TRIPOS>MOLECULE
2pw3_CMP_2_INTS_M
   34     0     6     0     0
SMALL
NO_CHARGES


@<TRIPOS>ATOM
      1 N           9.5580    8.1415   16.4805 N.am      1 SEC2        0.0000 
      2 N           9.8730    6.9210   16.8570 N.am      5 SEL2        0.0000 
      3 N           9.2430    9.3620   16.1040 N.am      3 SEP2        0.0000 
      4 CA         14.5275    7.9090   13.9520 C.3       2 GLC5        0.0000 
      5 CA         13.6540    6.2050   14.4640 C.3       6 GLL5        0.0000 
      6 CA         15.4010    9.6130   13.4400 C.3       4 GLP5        0.0000 
      7 CA         12.4000    3.0930   13.5165 C.3       2 GLC5        0.0000 
      8 CA         13.6000    4.9620   13.5660 C.3       6 GLL5        0.0000 
      9 CA         11.2000    1.2240   13.4670 C.3       4 GLP5        0.0000 
     10 CA         14.2315    3.5280   12.5895 C.3       2 GLC5        0.0000 
     11 CA         14.8630    2.0940   11.6130 C.3       4 GLP5        0.0000 
     12 N          10.1075    4.2225   10.3090 N.am      1 SEC2        0.0000 
     13 N          11.3710    5.3060   10.6880 N.am      5 SEL2        0.0000 
     14 N           8.8440    3.1390    9.9300 N.am      3 SEP2        0.0000 
     15 CA         13.1275    7.9570    8.9630 C.3       2 GLC5        0.0000 
     16 CA         12.9990    6.0160    8.8530 C.3       6 GLL5        0.0000 
     17 CA         13.2560    9.8980    9.0730 C.3       4 GLP5        0.0000 
     18 N          15.2770    6.5030    7.5695 N.am      1 SEC2        0.0000 
     19 N          14.3030    6.2930    8.6520 N.am      5 SEL2        0.0000 
     20 N          16.2510    6.7130    6.4870 N.am      3 SEP2        0.0000 
     21 CA         14.2000    8.0530    9.3810 C.3       2 GLC5        0.0000 
     22 CA         15.1440    6.2080    9.6890 C.3       6 GLL5        0.0000 
     23 CA         15.9405    7.9480    8.9400 C.3       2 GLC5        0.0000 
     24 CA         16.7370    9.6880    8.1910 C.3       4 GLP5        0.0000 
     25 CA         12.5643    3.4683   17.1230 C.3       2 GLC5        0.0000 
     26 CA         12.4540    4.5130   15.5470 C.3       6 GLL5        0.0000 
     27 CA         13.3370    2.6720   18.4480 C.3       4 GLP5        0.0000 
     28 CA         11.4958    2.7443   14.6325 C.3       2 GLC5        0.0000 
     29 CA         11.1290    4.0160   16.0490 C.3       6 GLL5        0.0000 
     30 CA         12.7432    7.1356   13.0199 C.3       2 GLC5        0.0000 
     31 CA         12.4000    5.9960   15.2910 C.3       6 GLL5        0.0000 
     32 CA         12.1730    8.7400   11.8180 C.3       4 GLP5        0.0000 
     33 CA         12.6340    7.1837   11.2265 C.3       2 GLC5        0.0000 
     34 CA         13.5890    5.6040   11.1190 C.3       6 GLL5        0.0000 
@<TRIPOS>BOND
@<TRIPOS>SUBSTRUCTURE
     1 SEC2        1 GROUP        1 X    SEC  0     ROOT SEC X 2
     2 GLC5        4 GROUP        1 X    GLC  0     **** GLC X 6
     3 SEP2        3 GROUP        1 Y    SEP  0     ROOT SEP Y 9
     4 GLP5        6 GROUP        1 Y    GLP  0     **** GLP Y 13
     5 SEL2        2 GROUP        1 Z    SEL  0     ROOT SEL Z 16
     6 GLL5        5 GROUP        1 Z    GLL  0     **** GLL Z 20
@<TRIPOS>SET

