#    Name: 2pw3_CMP_2_ligand
#    Modification time : Mon Mar 24 19:26:29 2014

@<TRIPOS>MOLECULE
2pw3_CMP_2_ligand
   33    36     1     0     0
SMALL
NO_CHARGES


@<TRIPOS>ATOM
      1 P          11.0430    6.2440   17.4780 P.3       1 CMP1        0.0000 
      2 O1P        11.3900    6.5290   18.8940 O.co2     1 CMP1        0.0000 
      3 O2P         9.8730    6.9210   16.8570 O.co2     1 CMP1        0.0000 
      4 O5'        10.8400    4.6640   17.2990 O.3       1 CMP1        0.0000 
      5 C5'        11.1290    4.0160   16.0490 C.3       1 CMP1        0.0000 
      6 C4'        12.4540    4.5130   15.5470 C.3       1 CMP1        0.0000 
      7 O4'        12.8290    3.9820   14.2550 O.3       1 CMP1        0.0000 
      8 C3'        12.4000    5.9960   15.2910 C.3       1 CMP1        0.0000 
      9 O3'        12.3240    6.5840   16.5680 O.3       1 CMP1        0.0000 
     10 C2'        13.6540    6.2050   14.4640 C.3       1 CMP1        0.0000 
     11 O2'        14.8230    6.1760   15.2580 O.3       1 CMP1        0.0000 
     12 C1'        13.6000    4.9620   13.5660 C.3       1 CMP1        0.0000 
     13 N9         12.9620    5.2030   12.2730 N.pl3     1 CMP1        0.0000 
     14 C8         11.6370    5.0560   11.9480 C.2       1 CMP1        0.0000 
     15 N7         11.3710    5.3060   10.6880 N.2       1 CMP1        0.0000 
     16 C5         12.6010    5.6510   10.1510 C.ar      1 CMP1        0.0000 
     17 C6         12.9990    6.0160    8.8530 C.ar      1 CMP1        0.0000 
     18 N6         12.1610    6.0990    7.8170 N.pl3     1 CMP1        0.0000 
     19 N1         14.3030    6.2930    8.6520 N.ar      1 CMP1        0.0000 
     20 C2         15.1440    6.2080    9.6890 C.ar      1 CMP1        0.0000 
     21 N3         14.8930    5.8770   10.9540 N.ar      1 CMP1        0.0000 
     22 C4         13.5890    5.6040   11.1190 C.ar      1 CMP1        0.0000 
     23 H          10.3650    4.2402   15.3004 H         1 CMP1        0.0000 
     24 H          11.1850    2.9311   16.1686 H         1 CMP1        0.0000 
     25 H          13.2264    4.3339   16.2648 H         1 CMP1        0.0000 
     26 H          11.5427    6.1620   14.6800 H         1 CMP1        0.0000 
     27 H          13.5316    7.0471   13.8608 H         1 CMP1        0.0000 
     28 H          14.6088    4.6063   13.4293 H         1 CMP1        0.0000 
     29 H          10.9582    4.7813   12.6339 H         1 CMP1        0.0000 
     30 H          11.2015    5.8937    8.0097 H         1 CMP1        0.0000 
     31 H          12.5682    6.3590    6.9414 H         1 CMP1        0.0000 
     32 H          16.2040    6.4487    9.4592 H         1 CMP1        0.0000 
     33 H          15.5601    5.9406   14.6246 H         1 CMP1        0.0000 
@<TRIPOS>BOND
     1    2    1 ar   
     2    3    1 ar   
     3    4    1 1    
     4    9    1 1    
     5    5    4 1    
     6    6    5 1    
     7   23    5 1    
     8   24    5 1    
     9    7    6 1    
    10    8    6 1    
    11   25    6 1    
    12   12    7 1    
    13    9    8 1    
    14   10    8 1    
    15   26    8 1    
    16   11   10 1    
    17   12   10 1    
    18   27   10 1    
    19   33   11 1    
    20   13   12 1    
    21   28   12 1    
    22   14   13 1    
    23   22   13 1    
    24   15   14 2    
    25   29   14 1    
    26   16   15 1    
    27   17   16 ar   
    28   22   16 ar   
    29   18   17 1    
    30   19   17 ar   
    31   30   18 1    
    32   31   18 1    
    33   20   19 ar   
    34   21   20 ar   
    35   32   20 1    
    36   22   21 ar   
@<TRIPOS>SUBSTRUCTURE
     1 CMP1        1 GROUP   
@<TRIPOS>SET

