#    Name: 3cy3_JN5_1_INTS_M
#    Modification time : Mon Mar 24 22:30:17 2014

@<TRIPOS>MOLECULE
3cy3_JN5_1_INTS_M
   71     0     6     0     0
SMALL
NO_CHARGES


@<TRIPOS>ATOM
      1 CA        -23.9290   39.0590   -2.7010 C.3       2 GLC5        0.0000 
      2 CA        -22.4500   40.3910   -2.9360 C.3       6 GLL5        0.0000 
      3 CA        -25.4080   37.7270   -2.4660 C.3       4 GLP5        0.0000 
      4 CA        -22.2720   37.6680   -3.5355 C.3       2 GLC5        0.0000 
      5 CA        -21.0510   39.3090   -4.4670 C.3       6 GLL5        0.0000 
      6 CA        -23.4930   36.0270   -2.6040 C.3       4 GLP5        0.0000 
      7 CA        -17.6150   40.0105   -4.3545 C.3       2 GLC5        0.0000 
      8 CA        -18.8560   38.2960   -3.7540 C.3       6 GLL5        0.0000 
      9 CA        -16.3740   41.7250   -4.9550 C.3       4 GLP5        0.0000 
     10 CA        -20.0050   34.9385   -4.3385 C.3       2 GLC5        0.0000 
     11 CA        -19.0280   36.7920   -3.7360 C.3       6 GLL5        0.0000 
     12 CA        -20.9820   33.0850   -4.9410 C.3       4 GLP5        0.0000 
     13 CA        -16.2840   36.9755   -1.7100 C.3       2 GLC5        0.0000 
     14 CA        -16.9490   35.5930   -3.2600 C.3       6 GLL5        0.0000 
     15 CA        -15.6190   38.3580   -0.1600 C.3       4 GLP5        0.0000 
     16 CA        -14.8320   32.3310   -1.0400 C.3       2 GLC5        0.0000 
     17 CA        -15.3140   34.3720   -1.4910 C.3       6 GLL5        0.0000 
     18 CA        -14.3500   30.2900   -0.5890 C.3       4 GLP5        0.0000 
     19 CA        -13.9290   34.5185   -0.0320 C.3       2 GLC5        0.0000 
     20 CA        -12.5440   34.6650    1.4270 C.3       4 GLP5        0.0000 
     21 CA        -16.8845   32.5340    2.5770 C.3       2 GLC5        0.0000 
     22 CA        -16.2260   33.9310    1.1390 C.3       6 GLL5        0.0000 
     23 CA        -17.5430   31.1370    4.0150 C.3       4 GLP5        0.0000 
     24 CA        -14.3850   34.2980    1.2830 C.3       2 GLC5        0.0000 
     25 N         -15.3485   32.1065    2.6290 N.am      1 SEC2        0.0000 
     26 N         -15.6530   33.1870    1.7640 N.am      5 SEL2        0.0000 
     27 N         -15.0440   31.0260    3.4940 N.am      3 SEP2        0.0000 
     28 CA        -18.6725   38.6985    4.9625 C.3       2 GLC5        0.0000 
     29 CA        -19.4230   37.5090    3.6060 C.3       6 GLL5        0.0000 
     30 CA        -17.9220   39.8880    6.3190 C.3       4 GLP5        0.0000 
     31 CA        -19.3940   39.7905    4.5250 C.3       2 GLC5        0.0000 
     32 CA        -20.4030   38.5010    3.6240 C.3       6 GLL5        0.0000 
     33 CA        -18.3850   41.0800    5.4260 C.3       4 GLP5        0.0000 
     34 CA        -22.9205   39.9860    2.5600 C.3       2 GLC5        0.0000 
     35 CA        -20.9960   38.9530    2.4340 C.3       6 GLL5        0.0000 
     36 CA        -24.8450   41.0190    2.6860 C.3       4 GLP5        0.0000 
     37 CA        -20.2910   35.4140    0.3855 C.3       2 GLC5        0.0000 
     38 CA        -18.9530   36.6930   -0.2060 C.3       6 GLL5        0.0000 
     39 CA        -21.6290   34.1350    0.9770 C.3       4 GLP5        0.0000 
     40 CA        -22.4140   38.5930   -1.2830 C.3       2 GLC5        0.0000 
     41 CA        -20.4040   39.4460   -2.1720 C.3       6 GLL5        0.0000 
     42 CA        -23.8410   37.3940   -0.5340 C.3       4 GLP5        0.0000 
     43 CA        -19.2490   40.6920   -1.7380 C.3       2 GLC5        0.0000 
     44 CA        -21.5700   40.1380   -1.8920 C.3       6 GLL5        0.0000 
     45 CA        -17.5110   41.5920   -1.4440 C.3       4 GLP5        0.0000 
     46 CA        -21.9502   41.8157   -2.1435 C.3       2 GLC5        0.0000 
     47 CA        -22.1820   43.5400   -1.8030 C.3       4 GLP5        0.0000 
     48 CA        -18.5033   40.1300   -2.5275 C.3       2 GLC5        0.0000 
     49 CA        -20.1350   39.0400   -3.4680 C.3       6 GLL5        0.0000 
     50 CA        -16.5805   32.7190   -0.3632 C.3       2 GLC5        0.0000 
     51 CA        -16.9280   34.8130    0.2760 C.3       6 GLL5        0.0000 
     52 CA        -16.5840   31.0660   -1.4340 C.3       4 GLP5        0.0000 
     53 CA        -18.1975   33.3705    0.7157 C.3       2 GLC5        0.0000 
     54 CA        -19.8180   32.3690    0.7240 C.3       4 GLP5        0.0000 
     55 CA        -16.0231   36.5392   -0.3306 C.3       2 GLC5        0.0000 
     56 CA        -21.1240   36.9155    3.3998 C.3       2 GLC5        0.0000 
     57 CA        -18.9890   36.9790    2.3850 C.3       6 GLL5        0.0000 
     58 CA        -23.0420   36.5870    3.8040 C.3       4 GLP5        0.0000 
     59 CA        -17.6140   38.4325    2.9028 C.3       2 GLC5        0.0000 
     60 CA        -16.0220   39.6210    2.8100 C.3       4 GLP5        0.0000 
     61 CA        -20.2210   37.3480    5.4970 C.3       2 GLC5        0.0000 
     62 CA        -20.5290   36.6910    7.3790 C.3       4 GLP5        0.0000 
     63 CA        -21.8708   37.6570    3.4165 C.3       2 GLC5        0.0000 
     64 CA        -22.3167   38.0405    0.6418 C.3       2 GLC5        0.0000 
     65 CA        -20.7831   35.9754    1.2361 C.3       2 GLC5        0.0000 
     66 CA        -20.5890   38.4210    1.2010 C.3       6 GLL5        0.0000 
     67 CA        -21.5637   37.2593    2.5008 C.3       2 GLC5        0.0000 
     68 CA        -19.5820   37.4420    1.1940 C.3       6 GLL5        0.0000 
     69 CA        -19.3541   39.8308    1.1924 C.3       2 GLC5        0.0000 
     70 CA        -18.5210   41.5970    0.8790 C.3       4 GLP5        0.0000 
     71 CA        -17.4432   37.7127    0.1670 C.3       2 GLC5        0.0000 
@<TRIPOS>BOND
@<TRIPOS>SUBSTRUCTURE
     1 SEC2       25 GROUP        1 X    SEC  0     ROOT SEC X 2
     2 GLC5        1 GROUP        1 X    GLC  0     **** GLC X 6
     3 SEP2       27 GROUP        1 Y    SEP  0     ROOT SEP Y 9
     4 GLP5        3 GROUP        1 Y    GLP  0     **** GLP Y 13
     5 SEL2       26 GROUP        1 Z    SEL  0     ROOT SEL Z 16
     6 GLL5        2 GROUP        1 Z    GLL  0     **** GLL Z 20
@<TRIPOS>SET

