#    Name: 3cy3_JN5_1_ligand
#    Modification time : Mon Mar 24 22:30:18 2014

@<TRIPOS>MOLECULE
3cy3_JN5_1_ligand
   43    46     1     0     0
SMALL
NO_CHARGES


@<TRIPOS>ATOM
      1 C1W       -20.4040   39.4460   -2.1720 C.ar      1 JN5501      0.0000 
      2 C1X       -21.5700   40.1380   -1.8920 C.ar      1 JN5501      0.0000 
      3 C1Y       -22.4500   40.3910   -2.9360 C.ar      1 JN5501      0.0000 
      4 N1Z       -22.1720   39.9710   -4.1680 N.ar      1 JN5501      0.0000 
      5 C2A       -21.0510   39.3090   -4.4670 C.ar      1 JN5501      0.0000 
      6 C1V       -20.1350   39.0400   -3.4680 C.ar      1 JN5501      0.0000 
      7 C1U       -18.8560   38.2960   -3.7540 C.3       1 JN5501      0.0000 
      8 C1T       -19.0280   36.7920   -3.7360 C.3       1 JN5501      0.0000 
      9 N1S       -17.7660   36.1900   -4.1410 N.pl3     1 JN5501      0.0000 
     10 C2        -16.9490   35.5930   -3.2600 C.ar      1 JN5501      0.0000 
     11 N3        -17.3290   35.4920   -1.9730 N.ar      1 JN5501      0.0000 
     12 N1        -15.7540   35.1070   -3.6780 N.ar      1 JN5501      0.0000 
     13 C6        -14.9370   34.4990   -2.8280 C.ar      1 JN5501      0.0000 
     14 C5        -15.3140   34.3720   -1.4910 C.ar      1 JN5501      0.0000 
     15 C4        -16.5390   34.8840   -1.0660 C.ar      1 JN5501      0.0000 
     16 C1J       -16.9280   34.8130    0.2760 C.3       1 JN5501      0.0000 
     17 C1K       -16.2260   33.9310    1.1390 C.1       1 JN5501      0.0000 
     18 N1L       -15.6530   33.1870    1.7640 N.1       1 JN5501      0.0000 
     19 C1I       -17.8450   35.7200    0.7770 C.2       1 JN5501      0.0000 
     20 N1G       -18.0100   36.0060    2.1330 N.2       1 JN5501      0.0000 
     21 C1E       -18.9890   36.9790    2.3850 C.ar      1 JN5501      0.0000 
     22 C1C       -19.4230   37.5090    3.6060 C.ar      1 JN5501      0.0000 
     23 C1A       -20.4030   38.5010    3.6240 C.ar      1 JN5501      0.0000 
     24 C1B       -20.9960   38.9530    2.4340 C.ar      1 JN5501      0.0000 
     25 C1D       -20.5890   38.4210    1.2010 C.ar      1 JN5501      0.0000 
     26 C1F       -19.5820   37.4420    1.1940 C.ar      1 JN5501      0.0000 
     27 S1H       -18.9530   36.6930   -0.2060 S.3       1 JN5501      0.0000 
     28 H         -19.7369   39.2333   -1.4165 H         1 JN5501      0.0000 
     29 H         -21.7782   40.4534   -0.9477 H         1 JN5501      0.0000 
     30 H         -23.3259   40.9146   -2.7273 H         1 JN5501      0.0000 
     31 H         -20.8509   38.9915   -5.4316 H         1 JN5501      0.0000 
     32 H         -18.0955   38.5794   -3.0083 H         1 JN5501      0.0000 
     33 H         -18.4699   38.6015   -4.7401 H         1 JN5501      0.0000 
     34 H         -19.8269   36.5242   -4.4226 H         1 JN5501      0.0000 
     35 H         -19.3027   36.4845   -2.7304 H         1 JN5501      0.0000 
     36 H         -17.5345   36.2497   -5.1538 H         1 JN5501      0.0000 
     37 H         -14.0242   34.1129   -3.1224 H         1 JN5501      0.0000 
     38 H         -14.6922   33.9038   -0.8237 H         1 JN5501      0.0000 
     39 H         -17.9102   33.8560    0.0028 H         1 JN5501      0.0000 
     40 H         -19.0195   37.1667    4.4842 H         1 JN5501      0.0000 
     41 H         -20.6998   38.9118    4.5233 H         1 JN5501      0.0000 
     42 H         -21.7254   39.6709    2.4666 H         1 JN5501      0.0000 
     43 H         -21.0114   38.7354    0.3355 H         1 JN5501      0.0000 
@<TRIPOS>BOND
     1    2    1 ar   
     2    6    1 ar   
     3   28    1 1    
     4    3    2 ar   
     5   29    2 1    
     6    4    3 ar   
     7   30    3 1    
     8    5    4 ar   
     9    6    5 ar   
    10   31    5 1    
    11    7    6 1    
    12    8    7 1    
    13   32    7 1    
    14   33    7 1    
    15    9    8 1    
    16   34    8 1    
    17   35    8 1    
    18   10    9 1    
    19   36    9 1    
    20   11   10 ar   
    21   12   10 ar   
    22   15   11 ar   
    23   13   12 ar   
    24   14   13 ar   
    25   37   13 1    
    26   15   14 ar   
    27   38   14 1    
    28   16   15 1    
    29   17   16 1    
    30   19   16 1    
    31   39   16 1    
    32   18   17 3    
    33   20   19 2    
    34   27   19 1    
    35   21   20 1    
    36   22   21 ar   
    37   26   21 ar   
    38   23   22 ar   
    39   40   22 1    
    40   24   23 ar   
    41   41   23 1    
    42   25   24 ar   
    43   42   24 1    
    44   26   25 ar   
    45   43   25 1    
    46   27   26 1    
@<TRIPOS>SUBSTRUCTURE
     1 JN5501      1 GROUP   
@<TRIPOS>SET

