#    Name: 4e1z_0MX_1_INTS_M
#    Modification time : Mon Apr  7 23:15:12 2014

@<TRIPOS>MOLECULE
4e1z_0MX_1_INTS_M
   86     0     9     0     0
SMALL
NO_CHARGES


@<TRIPOS>ATOM
      1 O          29.2780  -18.2755   28.0550 O.2       1 ALC1        0.0000 
      2 O          30.4020  -17.4520   28.0310 O.2       7 ALL1        0.0000 
      3 O          28.1540  -19.0990   28.0790 O.2       4 ALP1        0.0000 
      4 N          35.1570   -7.6250   29.4035 N.am      2 SEC2        0.0000 
      5 N          35.4980   -7.9940   27.8920 N.am      8 SEL2        0.0000 
      6 N          34.8160   -7.2560   30.9150 N.am      5 SEP2        0.0000 
      7 CA         29.5480   -5.7815   30.5325 C.3       3 GLC5        0.0000 
      8 CA         30.5300   -7.2960   29.4990 C.3       9 GLL5        0.0000 
      9 CA         28.5660   -4.2670   31.5660 C.3       6 GLP5        0.0000 
     10 CA         30.4960   -7.1085   31.4745 C.3       3 GLC5        0.0000 
     11 CA         30.4620   -6.9210   33.4500 C.3       6 GLP5        0.0000 
     12 CA         28.6850   -7.1730   29.0345 C.3       3 GLC5        0.0000 
     13 CA         26.8400   -7.0500   28.5700 C.3       6 GLP5        0.0000 
     14 N          31.4865  -19.5595   28.0120 N.am      2 SEC2        0.0000 
     15 N          31.5440  -18.1480   28.4480 N.am      8 SEL2        0.0000 
     16 N          31.4290  -20.9710   27.5760 N.am      5 SEP2        0.0000 
     17 N          35.3540   -5.6895   24.7880 N.am      2 SEC2        0.0000 
     18 N          35.6770   -6.6130   26.0050 N.am      8 SEL2        0.0000 
     19 N          35.0310   -4.7660   23.5710 N.am      5 SEP2        0.0000 
     20 CA         28.7240  -16.0810   25.9045 C.3       3 GLC5        0.0000 
     21 CA         29.9650  -15.1050   27.2710 C.3       9 GLL5        0.0000 
     22 CA         27.4830  -17.0570   24.5380 C.3       6 GLP5        0.0000 
     23 CA         27.9550  -14.4525   27.1870 C.3       3 GLC5        0.0000 
     24 CA         25.9450  -13.8000   27.1030 C.3       6 GLP5        0.0000 
     25 O          34.0640  -19.1985   28.1245 O.2       1 ALC1        0.0000 
     26 O          33.8030  -17.7590   28.8160 O.2       7 ALL1        0.0000 
     27 O          34.3250  -20.6380   27.4330 O.2       4 ALP1        0.0000 
     28 O          35.2850   -9.7580   24.6070 O.2       1 ALC1        0.0000 
     29 O          34.6140   -8.8960   25.7370 O.2       7 ALL1        0.0000 
     30 O          35.9560  -10.6200   23.4770 O.2       4 ALP1        0.0000 
     31 CA         33.3715  -10.3705   23.5190 C.3       3 GLC5        0.0000 
     32 CA         32.7900  -10.4140   25.5600 C.3       9 GLL5        0.0000 
     33 CA         33.9530  -10.3270   21.4780 C.3       6 GLP5        0.0000 
     34 CA         28.8165   -6.5070   27.9680 C.3       3 GLC5        0.0000 
     35 CA         30.7930   -5.9640   27.3660 C.3       9 GLL5        0.0000 
     36 CA         33.8590   -8.5070   29.4255 C.3       3 GLC5        0.0000 
     37 CA         32.6260   -7.3780   28.0580 C.3       9 GLL5        0.0000 
     38 CA         35.0920   -9.6360   30.7930 C.3       6 GLP5        0.0000 
     39 CA         36.5845  -21.3150   28.5865 C.3       3 GLC5        0.0000 
     40 CA         37.7150  -19.5290   29.3340 C.3       9 GLL5        0.0000 
     41 CA         35.4540  -23.1010   27.8390 C.3       6 GLP5        0.0000 
     42 CA         37.9135  -20.5570   27.4180 C.3       3 GLC5        0.0000 
     43 CA         38.1120  -21.5850   25.5020 C.3       6 GLP5        0.0000 
     44 CA         31.5520  -14.7595   25.7428 C.3       3 GLC5        0.0000 
     45 CA         31.9500  -13.6710   27.3340 C.3       9 GLL5        0.0000 
     46 CA         31.8390  -15.7520   24.2920 C.3       6 GLP5        0.0000 
     47 CA         30.1528  -13.5190   29.0085 C.3       3 GLC5        0.0000 
     48 CA         30.5800  -13.8630   27.0530 C.3       9 GLL5        0.0000 
     49 CA         30.0330  -12.5540   30.8550 C.3       6 GLP5        0.0000 
     50 CA         31.0950  -15.6982   25.8978 C.3       3 GLC5        0.0000 
     51 CA         30.7370  -16.1840   27.7360 C.3       9 GLL5        0.0000 
     52 CA         32.4720  -15.6478   29.9045 C.3       3 GLC5        0.0000 
     53 CA         32.1130  -16.0300   27.9680 C.3       9 GLL5        0.0000 
     54 CA         32.5300  -15.8900   31.9520 C.3       6 GLP5        0.0000 
     55 CA         32.1265  -15.5788   26.0745 C.3       3 GLC5        0.0000 
     56 CA         30.0135  -16.1186   29.2384 C.3       3 GLC5        0.0000 
     57 CA         28.7950  -16.4000   30.7410 C.3       6 GLP5        0.0000 
     58 CA         31.9910  -17.7010   26.5220 C.3       3 GLC5        0.0000 
     59 CA         32.5570  -19.2950   25.1920 C.3       6 GLP5        0.0000 
     60 CA         31.9741  -11.5490   28.4216 C.3       3 GLC5        0.0000 
     61 CA         32.1520  -11.5850   25.9740 C.3       9 GLL5        0.0000 
     62 CA         31.7180  -10.7900   30.2710 C.3       6 GLP5        0.0000 
     63 CA         31.1015  -10.0218   24.7425 C.3       3 GLC5        0.0000 
     64 CA         29.7320   -9.0440   23.7180 C.3       6 GLP5        0.0000 
     65 CA         34.6530  -10.5380   29.0885 C.3       3 GLC5        0.0000 
     66 CA         34.5360  -10.8550   27.1760 C.3       9 GLL5        0.0000 
     67 CA         32.9660  -11.1150   28.8275 C.3       3 GLC5        0.0000 
     68 CA         33.6644  -13.3598   25.6146 C.3       3 GLC5        0.0000 
     69 CA         33.8920  -12.0250   27.5920 C.3       9 GLL5        0.0000 
     70 CA         34.1780  -14.7130   24.1880 C.3       6 GLP5        0.0000 
     71 CA         33.0830   -4.9025   27.7170 C.3       3 GLC5        0.0000 
     72 CA         33.3810   -6.9770   26.9380 C.3       9 GLL5        0.0000 
     73 CA         33.0700   -3.2800   28.9500 C.3       6 GLP5        0.0000 
     74 CA         32.1135   -4.5243   27.8780 C.3       3 GLC5        0.0000 
     75 CA         31.5210   -5.5730   26.2460 C.3       9 GLL5        0.0000 
     76 CA         32.5282   -5.1967   28.5633 C.3       3 GLC5        0.0000 
     77 CA         31.3470   -6.8490   28.2950 C.3       9 GLL5        0.0000 
     78 CA         33.0626   -6.5891   29.9157 C.3       3 GLC5        0.0000 
     79 CA         34.3430   -5.9530   31.3540 C.3       6 GLP5        0.0000 
     80 CA         31.7501   -9.0076   29.3742 C.3       3 GLC5        0.0000 
     81 CA         35.9385  -16.8473   31.0355 C.3       3 GLC5        0.0000 
     82 CA         36.3030  -17.8280   29.1900 C.3       9 GLL5        0.0000 
     83 CA         34.9360  -16.1320   32.7970 C.3       6 GLP5        0.0000 
     84 CA         37.5516  -18.0301   27.6709 C.3       3 GLC5        0.0000 
     85 CA         38.4440  -18.3630   29.4770 C.3       9 GLL5        0.0000 
     86 CA         37.5930  -17.8060   26.0020 C.3       6 GLP5        0.0000 
@<TRIPOS>BOND
@<TRIPOS>SUBSTRUCTURE
     1 ALC1        1 GROUP        1 X    ALC  0     ROOT ALC X 1
     2 SEC2        4 GROUP        1 X    SEC  0     **** SEC X 2
     3 GLC5        7 GROUP        1 X    GLC  0     **** GLC X 6
     4 ALP1        3 GROUP        1 Y    ALP  0     ROOT ALP Y 8
     5 SEP2        6 GROUP        1 Y    SEP  0     **** SEP Y 9
     6 GLP5        9 GROUP        1 Y    GLP  0     **** GLP Y 13
     7 ALL1        2 GROUP        1 Z    ALL  0     ROOT ALL Z 15
     8 SEL2        5 GROUP        1 Z    SEL  0     **** SEL Z 16
     9 GLL5        8 GROUP        1 Z    GLL  0     **** GLL Z 20
@<TRIPOS>SET

