#    Name: 4e1z_0MX_1_ligand
#    Modification time : Mon Apr  7 23:15:13 2014

@<TRIPOS>MOLECULE
4e1z_0MX_1_ligand
   51    55     1     0     0
SMALL
NO_CHARGES


@<TRIPOS>ATOM
      1 C1         31.9500  -13.6710   27.3340 C.ar      1 0MX1201     0.0000 
      2 N1         30.4020  -17.4520   28.0310 N.pl3     1 0MX1201     0.0000 
      3 O1         35.4980   -7.9940   27.8920 O.2       1 0MX1201     0.0000 
      4 S1         34.8510   -7.5930   26.6580 S.o2      1 0MX1201     0.0000 
      5 CL1        30.5300   -7.2960   29.4990 Cl        1 0MX1201     0.0000 
      6 C2         30.5800  -13.8630   27.0530 C.ar      1 0MX1201     0.0000 
      7 N2         31.5440  -18.1480   28.4480 N.2       1 0MX1201     0.0000 
      8 O2         35.6770   -6.6130   26.0050 O.2       1 0MX1201     0.0000 
      9 C3         29.9650  -15.1050   27.2710 C.ar      1 0MX1201     0.0000 
     10 N3         33.8030  -17.7590   28.8160 N.am      1 0MX1201     0.0000 
     11 O3         35.1350  -15.9610   28.6480 O.2       1 0MX1201     0.0000 
     12 C4         32.7150  -14.7810   27.7460 C.ar      1 0MX1201     0.0000 
     13 N4         34.6140   -8.8960   25.7370 N.pl3     1 0MX1201     0.0000 
     14 O4         36.3200  -19.0940   29.1090 O.3       1 0MX1201     0.0000 
     15 C5         32.1130  -16.0300   27.9680 C.ar      1 0MX1201     0.0000 
     16 C6         30.7370  -16.1840   27.7360 C.ar      1 0MX1201     0.0000 
     17 C7         32.5670  -17.2900   28.4030 C.2       1 0MX1201     0.0000 
     18 C8         32.6670  -12.3910   27.0070 C.ar      1 0MX1201     0.0000 
     19 C9         32.1520  -11.5850   25.9740 C.ar      1 0MX1201     0.0000 
     20 C10        32.7900  -10.4140   25.5600 C.ar      1 0MX1201     0.0000 
     21 C11        33.9940  -10.0370   26.1590 C.ar      1 0MX1201     0.0000 
     22 C12        34.5360  -10.8550   27.1760 C.ar      1 0MX1201     0.0000 
     23 C13        33.8920  -12.0250   27.5920 C.ar      1 0MX1201     0.0000 
     24 C14        33.3810   -6.9770   26.9380 C.ar      1 0MX1201     0.0000 
     25 C15        32.8110   -6.0730   26.0300 C.ar      1 0MX1201     0.0000 
     26 C16        31.5210   -5.5730   26.2460 C.ar      1 0MX1201     0.0000 
     27 C17        30.7930   -5.9640   27.3660 C.ar      1 0MX1201     0.0000 
     28 C18        31.3470   -6.8490   28.2950 C.ar      1 0MX1201     0.0000 
     29 C19        32.6260   -7.3780   28.0580 C.ar      1 0MX1201     0.0000 
     30 C20        34.9980  -17.1330   28.9060 C.2       1 0MX1201     0.0000 
     31 C21        36.3030  -17.8280   29.1900 C.2       1 0MX1201     0.0000 
     32 C22        37.7150  -19.5290   29.3340 C.2       1 0MX1201     0.0000 
     33 C23        38.4440  -18.3630   29.4770 C.2       1 0MX1201     0.0000 
     34 C24        37.5790  -17.2970   29.3580 C.2       1 0MX1201     0.0000 
     35 H          29.5267  -17.8493   27.9752 H         1 0MX1201     0.0000 
     36 H          30.0269  -13.0773   26.6826 H         1 0MX1201     0.0000 
     37 H          28.9686  -15.2252   27.0944 H         1 0MX1201     0.0000 
     38 H          33.8004  -18.8274   29.1215 H         1 0MX1201     0.0000 
     39 H          33.7291  -14.6720   27.8854 H         1 0MX1201     0.0000 
     40 H          34.9904   -8.7624   24.7828 H         1 0MX1201     0.0000 
     41 H          31.2696  -11.8746   25.5083 H         1 0MX1201     0.0000 
     42 H          32.3784   -9.8360   24.8229 H         1 0MX1201     0.0000 
     43 H          35.4278  -10.5774   27.6182 H         1 0MX1201     0.0000 
     44 H          34.3073  -12.6131   28.3174 H         1 0MX1201     0.0000 
     45 H          33.3429   -5.7768   25.2030 H         1 0MX1201     0.0000 
     46 H          31.1122   -4.9129   25.5706 H         1 0MX1201     0.0000 
     47 H          29.8411   -5.6007   27.5132 H         1 0MX1201     0.0000 
     48 H          33.0200   -8.0698   28.7116 H         1 0MX1201     0.0000 
     49 H          37.9822  -20.4035   29.3627 H         1 0MX1201     0.0000 
     50 H          39.3822  -18.3087   29.6311 H         1 0MX1201     0.0000 
     51 H          37.8001  -16.3818   29.3842 H         1 0MX1201     0.0000 
@<TRIPOS>BOND
     1    6    1 ar   
     2   12    1 ar   
     3   18    1 1    
     4    7    2 1    
     5   16    2 1    
     6   35    2 1    
     7    4    3 2    
     8    8    4 2    
     9   13    4 1    
    10   24    4 1    
    11   28    5 1    
    12    9    6 ar   
    13   36    6 1    
    14   17    7 2    
    15   16    9 ar   
    16   37    9 1    
    17   17   10 1    
    18   30   10 am   
    19   38   10 1    
    20   30   11 2    
    21   15   12 ar   
    22   39   12 1    
    23   21   13 1    
    24   40   13 1    
    25   31   14 1    
    26   32   14 1    
    27   16   15 ar   
    28   17   15 1    
    29   19   18 ar   
    30   23   18 ar   
    31   20   19 ar   
    32   41   19 1    
    33   21   20 ar   
    34   42   20 1    
    35   22   21 ar   
    36   23   22 ar   
    37   43   22 1    
    38   44   23 1    
    39   25   24 ar   
    40   29   24 ar   
    41   26   25 ar   
    42   45   25 1    
    43   27   26 ar   
    44   46   26 1    
    45   28   27 ar   
    46   47   27 1    
    47   29   28 ar   
    48   48   29 1    
    49   31   30 1    
    50   34   31 2    
    51   33   32 2    
    52   49   32 1    
    53   34   33 1    
    54   50   33 1    
    55   51   34 1    
@<TRIPOS>SUBSTRUCTURE
     1 0MX1201     1 GROUP   
@<TRIPOS>SET

