#    Name: 3T8C_1_CAVITY_N1_6.mol2
#    Modification time : Tue Mar 11 02:54:48 2014

@<TRIPOS>MOLECULE
3T8C_1_CAVITY_N1_6.mol2
   62     0     7     0     0
SMALL
NO_CHARGES


@<TRIPOS>ATOM
      1 CA         14.7673   42.9399   -7.8310 C.3       6 GLY6        0.0000 
      2 O          13.5635   43.2575   -6.9943 O.2       2 ALA2        0.0000 
      3 DU         12.6696   42.8964   -8.1435 H         7 CUB7        0.0000 
      4 O          11.4658   43.2140   -7.3068 O.2       2 ALA2        0.0000 
      5 CZ         10.8818   42.1743  -10.4417 C.ar      5 PHE5        0.0000 
      6 CA         13.5216   41.8366   -6.5153 C.3       6 GLY6        0.0000 
      7 N          16.2391   40.5227  -10.1743 N.2       2 ALA2        0.0000 
      8 CA         15.0353   40.8403   -9.3377 C.3       6 GLY6        0.0000 
      9 CA         13.8315   41.1580   -8.5010 C.3       6 GLY6        0.0000 
     10 CA         12.6277   41.4756   -7.6644 C.3       6 GLY6        0.0000 
     11 O          11.4238   41.7932   -6.8278 O.2       2 ALA2        0.0000 
     12 O          10.2200   42.1108   -5.9911 O.2       2 ALA2        0.0000 
     13 DU         14.1413   40.4793  -10.4868 H         7 CUB7        0.0000 
     14 CZ         12.9375   40.7969   -9.6502 C.ar      5 PHE5        0.0000 
     15 OG         11.7337   41.1145   -8.8136 O.2       1 SER1        0.0000 
     16 N          10.5299   41.4322   -7.9769 N.2       2 ALA2        0.0000 
     17 CZ         13.2474   40.1182  -11.6360 C.ar      5 PHE5        0.0000 
     18 CA         12.9733   38.3998  -16.7567 C.3       6 GLY6        0.0000 
     19 CA         14.9933   39.4195   -8.8586 C.3       6 GLY6        0.0000 
     20 CA         13.7895   39.7371   -8.0220 C.3       6 GLY6        0.0000 
     21 N          12.5857   40.0548   -7.1854 N.2       2 ALA2        0.0000 
     22 N          11.3819   40.3724   -6.3487 N.2       2 ALA2        0.0000 
     23 O          18.9146   37.7880  -13.3544 O.2       2 ALA2        0.0000 
     24 N          17.7108   38.1056  -12.5177 N.2       2 ALA2        0.0000 
     25 N          15.3032   38.7408  -10.8444 N.2       2 ALA2        0.0000 
     26 N          14.0994   39.0585  -10.0078 N.2       2 ALA2        0.0000 
     27 OG         12.8956   39.3761   -9.1711 O.2       1 SER1        0.0000 
     28 OG         11.6918   39.6937   -8.3345 O.2       1 SER1        0.0000 
     29 N          10.4880   40.0113   -7.4979 N.2       2 ALA2        0.0000 
     30 N          15.6131   38.0621  -12.8302 N.2       2 ALA2        0.0000 
     31 N          14.4093   38.3798  -11.9936 N.2       2 ALA2        0.0000 
     32 CZ         13.2055   38.6974  -11.1569 C.ar      5 PHE5        0.0000 
     33 DU         15.9230   37.3835  -14.8160 H         7 CUB7        0.0000 
     34 DU         14.7192   37.7011  -13.9794 H         7 CUB7        0.0000 
     35 CZ         13.5153   38.0187  -13.1427 C.ar      5 PHE5        0.0000 
     36 DU         15.0290   37.0224  -15.9652 H         7 CUB7        0.0000 
     37 CA         13.8252   37.3400  -15.1285 C.3       6 GLY6        0.0000 
     38 CA         12.9313   36.9790  -16.2777 C.3       6 GLY6        0.0000 
     39 O          14.9514   37.9987   -8.3796 O.2       2 ALA2        0.0000 
     40 CA         13.7476   38.3163   -7.5429 C.3       6 GLY6        0.0000 
     41 N          12.5438   38.6339   -6.7063 N.2       2 ALA2        0.0000 
     42 N          14.0574   37.6376   -9.5287 N.2       2 ALA2        0.0000 
     43 N          12.8536   37.9553   -8.6921 N.2       2 ALA2        0.0000 
     44 OD1        11.6498   38.2729   -7.8554 O.3       3 ASP3        0.0000 
     45 NZ         17.9787   36.0061  -14.0245 N.2       4 LYS4        0.0000 
     46 NZ         16.7749   36.3237  -13.1878 N.2       4 LYS4        0.0000 
     47 N          15.5711   36.6413  -12.3512 N.2       2 ALA2        0.0000 
     48 N          14.3673   36.9589  -11.5145 N.2       2 ALA2        0.0000 
     49 CZ         13.1635   37.2766  -10.6779 C.ar      5 PHE5        0.0000 
     50 OG         11.9597   37.5942   -9.8412 O.2       1 SER1        0.0000 
     51 NZ         17.0848   35.6450  -15.1736 N.2       4 LYS4        0.0000 
     52 NZ         15.8810   35.9626  -14.3370 N.2       4 LYS4        0.0000 
     53 NZ         14.6772   36.2803  -13.5003 N.2       4 LYS4        0.0000 
     54 CZ         13.4734   36.5979  -12.6637 C.ar      5 PHE5        0.0000 
     55 CZ         12.2696   36.9155  -11.8270 C.ar      5 PHE5        0.0000 
     56 NZ         14.9871   35.6016  -15.4861 N.2       4 LYS4        0.0000 
     57 NZ         13.7833   35.9192  -14.6495 N.2       4 LYS4        0.0000 
     58 CZ         12.5795   36.2368  -13.8128 C.ar      5 PHE5        0.0000 
     59 CA         14.0155   36.2168   -9.0497 C.3       6 GLY6        0.0000 
     60 NZ         15.5292   35.2205  -11.8721 N.2       4 LYS4        0.0000 
     61 CA         14.3254   35.5381  -11.0355 C.3       6 GLY6        0.0000 
     62 O          13.4315   35.1771  -12.1846 O.2       2 ALA2        0.0000 
@<TRIPOS>BOND
@<TRIPOS>SUBSTRUCTURE
     1 SER1       15 GROUP   
     2 ALA2        2 GROUP   
     3 ASP3       44 GROUP   
     4 LYS4       45 GROUP   
     5 PHE5        5 GROUP   
     6 GLY6        1 GROUP   
     7 CUB7        3 GROUP   
@<TRIPOS>SET

