#    Name: 3t8c_UBW_1_INTS_M
#    Modification time : Mon Mar 24 19:19:26 2014

@<TRIPOS>MOLECULE
3t8c_UBW_1_INTS_M
   61     0    12     0     0
SMALL
NO_CHARGES


@<TRIPOS>ATOM
      1 CA         12.0060   40.7605  -11.4720 C.3       4 GLC5        0.0000 
      2 CA         13.7200   41.7640  -11.0120 C.3      12 GLL5        0.0000 
      3 CA         10.2920   39.7570  -11.9320 C.3       8 GLP5        0.0000 
      4 O          10.8840   39.4585   -8.9980 O.2       1 ALC1        0.0000 
      5 O          12.1900   40.0940   -8.1500 O.2       9 ALL1        0.0000 
      6 O           9.5780   38.8230   -9.8460 O.2       5 ALP1        0.0000 
      7 CA         14.0150   40.0370   -6.5640 C.3       4 GLC5        0.0000 
      8 CA         12.0100   40.1950   -6.7220 C.3      12 GLL5        0.0000 
      9 CA         16.0200   39.8790   -6.4060 C.3       8 GLP5        0.0000 
     10 N          13.3700   36.8460   -5.5525 N.am      2 SEC2        0.0000 
     11 N          12.5910   37.6250   -6.2450 N.am     10 SEL2        0.0000 
     12 N          14.1490   36.0670   -4.8600 N.am      6 SEP2        0.0000 
     13 Zn         10.0245   37.1930   -6.8415 Zn        3 ZIC7        0.0000 
     14 Zn         10.1620   38.1410   -6.6140 Zn       11 ZIL7        0.0000 
     15 Zn          9.8870   36.2450   -7.0690 Zn        7 ZIP7        0.0000 
     16 N           9.0040   38.8835   -6.9870 N.am      2 SEC2        0.0000 
     17 N          10.1620   38.1410   -6.6140 N.am     10 SEL2        0.0000 
     18 N           7.8460   39.6260   -7.3600 N.am      6 SEP2        0.0000 
     19 CA         10.2935   36.4790   -4.1710 C.3       4 GLC5        0.0000 
     20 CA         10.1200   38.4780   -3.6770 C.3      12 GLL5        0.0000 
     21 CA         10.4670   34.4800   -4.6650 C.3       8 GLP5        0.0000 
     22 N           6.3845   38.7185   -3.7960 N.am      2 SEC2        0.0000 
     23 N           7.7860   38.8210   -3.9920 N.am     10 SEL2        0.0000 
     24 N           4.9830   38.6160   -3.6000 N.am      6 SEP2        0.0000 
     25 N           6.9005   37.6925   -3.7140 N.am      2 SEC2        0.0000 
     26 N           6.0150   36.5640   -3.4360 N.am      6 SEP2        0.0000 
     27 CA          9.8990   36.0860    0.4995 C.3       4 GLC5        0.0000 
     28 CA          9.2080   36.5910   -1.3610 C.3      12 GLL5        0.0000 
     29 CA         10.5900   35.5810    2.3600 C.3       8 GLP5        0.0000 
     30 CA          9.5335   35.0870   -2.6060 C.3       4 GLC5        0.0000 
     31 CA          9.8590   33.5830   -3.8510 C.3       8 GLP5        0.0000 
     32 CA          7.4635   35.7290   -0.7295 C.3       4 GLC5        0.0000 
     33 CA          5.7190   34.8670   -0.0980 C.3       8 GLP5        0.0000 
     34 CA          9.1705   40.2495    1.2260 C.3       4 GLC5        0.0000 
     35 CA          9.7130   38.4990    0.1680 C.3      12 GLL5        0.0000 
     36 CA          8.6280   42.0000    2.2840 C.3       8 GLP5        0.0000 
     37 CA         11.0735   39.5515    0.9615 C.3       4 GLC5        0.0000 
     38 CA         12.4340   40.6040    1.7550 C.3       8 GLP5        0.0000 
     39 CA         10.1515   37.0400    1.2640 C.3       4 GLC5        0.0000 
     40 O          10.4420   41.2350   -3.6495 O.2       1 ALC1        0.0000 
     41 O           9.1020   40.6340   -4.1560 O.2       9 ALL1        0.0000 
     42 O          11.7820   41.8360   -3.1430 O.2       5 ALP1        0.0000 
     43 CA          7.2735   40.4090   -5.6675 C.3       4 GLC5        0.0000 
     44 CA          7.9530   41.4950   -4.4500 C.3      12 GLL5        0.0000 
     45 CA          6.5940   39.3230   -6.8850 C.3       8 GLP5        0.0000 
     46 CA          6.8670   40.8970   -1.7460 C.3       4 GLC5        0.0000 
     47 CA          7.4880   42.1060   -3.1340 C.3      12 GLL5        0.0000 
     48 CA          6.2460   39.6880   -0.3580 C.3       8 GLP5        0.0000 
     49 CA          8.5480   43.5000    0.4360 C.3       4 GLC5        0.0000 
     50 CA          7.9710   43.7150   -1.3020 C.3      12 GLL5        0.0000 
     51 CA          9.1250   43.2850    2.1740 C.3       8 GLP5        0.0000 
     52 CA          6.3715   42.6880   -0.5750 C.3       4 GLC5        0.0000 
     53 CA          4.7720   41.6610    0.1520 C.3       8 GLP5        0.0000 
     54 N          10.5415   43.2230   -5.0960 N.am      2 SEC2        0.0000 
     55 N           9.4310   42.6700   -5.9130 N.am     10 SEL2        0.0000 
     56 N          11.6520   43.7760   -4.2790 N.am      6 SEP2        0.0000 
     57 CA         18.8530   39.5877  -10.7942 C.3       4 GLC5        0.0000 
     58 CA         17.4360   41.0240  -11.0360 C.3      12 GLL5        0.0000 
     59 CA         20.2000   38.4780   -9.9430 C.3       8 GLP5        0.0000 
     60 CA          7.8777   38.8053   -0.4662 C.3       4 GLC5        0.0000 
     61 CA          9.4040   38.1010   -1.2730 C.3      12 GLL5        0.0000 
@<TRIPOS>BOND
@<TRIPOS>SUBSTRUCTURE
     1 ALC1        4 GROUP        1 X    ALC  0     ROOT ALC X 1
     2 SEC2       10 GROUP        1 X    SEC  0     **** SEC X 2
     3 ZIC7       13 GROUP        1 X    ZIC  0     **** ZIC X 5
     4 GLC5        1 GROUP        1 X    GLC  0     **** GLC X 6
     5 ALP1        6 GROUP        1 Y    ALP  0     ROOT ALP Y 8
     6 SEP2       12 GROUP        1 Y    SEP  0     **** SEP Y 9
     7 ZIP7       15 GROUP        1 Y    ZIP  0     **** ZIP Y 12
     8 GLP5        3 GROUP        1 Y    GLP  0     **** GLP Y 13
     9 ALL1        5 GROUP        1 Z    ALL  0     ROOT ALL Z 15
    10 SEL2       11 GROUP        1 Z    SEL  0     **** SEL Z 16
    11 ZIL7       14 GROUP        1 Z    ZIL  0     **** ZIL Z 19
    12 GLL5        2 GROUP        1 Z    GLL  0     **** GLL Z 20
@<TRIPOS>SET

