#    Name: 3t8c_UBW_1_ligand
#    Modification time : Mon Mar 24 19:19:26 2014

@<TRIPOS>MOLECULE
3t8c_UBW_1_ligand
   60    60     1     0     0
SMALL
NO_CHARGES


@<TRIPOS>ATOM
      1 C3         16.1810   41.4720  -10.6380 C.ar      1 UBW317      0.0000 
      2 C2         17.4360   41.0240  -11.0360 C.ar      1 UBW317      0.0000 
      3 C1         17.5760   40.3710  -12.2550 C.ar      1 UBW317      0.0000 
      4 C6         16.4690   40.1660  -13.0710 C.ar      1 UBW317      0.0000 
      5 C5         15.2160   40.6210  -12.6740 C.ar      1 UBW317      0.0000 
      6 C4         15.0750   41.2690  -11.4540 C.ar      1 UBW317      0.0000 
      7 C7         13.7200   41.7640  -11.0120 C.3       1 UBW317      0.0000 
      8 O8         13.0810   40.7260  -10.2600 O.3       1 UBW317      0.0000 
      9 C9         12.9750   40.8960   -8.8320 C.2       1 UBW317      0.0000 
     10 O21        13.6570   41.7510   -8.2780 O.2       1 UBW317      0.0000 
     11 N10        12.1900   40.0940   -8.1500 N.am      1 UBW317      0.0000 
     12 C11        12.0100   40.1950   -6.7220 C.3       1 UBW317      0.0000 
     13 P12        11.4920   38.6030   -6.0470 P.3       1 UBW317      0.0000 
     14 O22        12.5910   37.6250   -6.2450 O.co2     1 UBW317      0.0000 
     15 O23        10.1620   38.1410   -6.6140 O.co2     1 UBW317      0.0000 
     16 N13        11.2860   38.9530   -4.4190 N.3       1 UBW317      0.0000 
     17 C14        10.1200   38.4780   -3.6770 C.3       1 UBW317      0.0000 
     18 C15         8.9050   39.3280   -3.9640 C.2       1 UBW317      0.0000 
     19 O28         7.7860   38.8210   -3.9920 O.2       1 UBW317      0.0000 
     20 C24        10.5080   38.5960   -2.2070 C.3       1 UBW317      0.0000 
     21 C25         9.4040   38.1010   -1.2730 C.3       1 UBW317      0.0000 
     22 C26         9.2080   36.5910   -1.3610 C.3       1 UBW317      0.0000 
     23 C27         9.7130   38.4990    0.1680 C.3       1 UBW317      0.0000 
     24 N16         9.1020   40.6340   -4.1560 N.am      1 UBW317      0.0000 
     25 C17         7.9530   41.4950   -4.4500 C.3       1 UBW317      0.0000 
     26 C29         7.4880   42.1060   -3.1340 C.3       1 UBW317      0.0000 
     27 C30         8.5480   42.9910   -2.5030 C.3       1 UBW317      0.0000 
     28 C31         7.9710   43.7150   -1.3020 C.3       1 UBW317      0.0000 
     29 C18         8.2650   42.5630   -5.4680 C.2       1 UBW317      0.0000 
     30 O19         7.3200   43.2850   -5.8710 O.co2     1 UBW317      0.0000 
     31 O20         9.4310   42.6700   -5.9130 O.co2     1 UBW317      0.0000 
     32 H          16.0717   41.9558   -9.7353 H         1 UBW317      0.0000 
     33 H          18.2522   41.1745  -10.4341 H         1 UBW317      0.0000 
     34 H          18.5033   40.0376  -12.5552 H         1 UBW317      0.0000 
     35 H          16.5766   39.6770  -13.9699 H         1 UBW317      0.0000 
     36 H          14.4005   40.4780  -13.2803 H         1 UBW317      0.0000 
     37 H          13.1426   42.0285  -11.9006 H         1 UBW317      0.0000 
     38 H          13.8610   42.6652  -10.4112 H         1 UBW317      0.0000 
     39 H          11.6422   39.3228   -8.6184 H         1 UBW317      0.0000 
     40 H          11.2063   40.8324   -6.3990 H         1 UBW317      0.0000 
     41 H          12.9030   40.3845   -6.1534 H         1 UBW317      0.0000 
     42 H           9.9237   37.4580   -3.8931 H         1 UBW317      0.0000 
     43 H          10.7285   39.6439   -1.9759 H         1 UBW317      0.0000 
     44 H          11.4172   38.0120   -2.0267 H         1 UBW317      0.0000 
     45 H           8.4703   38.5850   -1.5584 H         1 UBW317      0.0000 
     46 H          10.0174   41.0845   -4.1113 H         1 UBW317      0.0000 
     47 H           7.1306   40.8801   -4.8242 H         1 UBW317      0.0000 
     48 H           7.2279   41.3001   -2.4373 H         1 UBW317      0.0000 
     49 H           6.5827   42.6981   -3.3143 H         1 UBW317      0.0000 
     50 H           8.8926   43.7189   -3.2338 H         1 UBW317      0.0000 
     51 H           9.3889   42.3780   -2.1871 H         1 UBW317      0.0000 
     52 H          10.0401   36.0936   -1.1158 H         1 UBW317      0.0000 
     53 H           8.4853   36.2739   -0.7469 H         1 UBW317      0.0000 
     54 H           8.9554   36.3025   -2.2845 H         1 UBW317      0.0000 
     55 H          10.5769   38.1071    0.4844 H         1 UBW317      0.0000 
     56 H           9.7856   39.4909    0.2719 H         1 UBW317      0.0000 
     57 H           9.0020   38.1894    0.7994 H         1 UBW317      0.0000 
     58 H           8.6476   44.3080   -0.8655 H         1 UBW317      0.0000 
     59 H           7.1944   44.2924   -1.5542 H         1 UBW317      0.0000 
     60 H           7.6470   43.0765   -0.6039 H         1 UBW317      0.0000 
@<TRIPOS>BOND
     1    2    1 ar   
     2    6    1 ar   
     3   32    1 1    
     4    3    2 ar   
     5   33    2 1    
     6    4    3 ar   
     7   34    3 1    
     8    5    4 ar   
     9   35    4 1    
    10    6    5 ar   
    11   36    5 1    
    12    7    6 1    
    13    8    7 1    
    14   37    7 1    
    15   38    7 1    
    16    9    8 1    
    17   10    9 2    
    18   11    9 am   
    19   12   11 1    
    20   39   11 1    
    21   13   12 1    
    22   40   12 1    
    23   41   12 1    
    24   14   13 ar   
    25   15   13 ar   
    26   16   13 1    
    27   17   16 1    
    28   18   17 1    
    29   20   17 1    
    30   42   17 1    
    31   19   18 2    
    32   24   18 am   
    33   21   20 1    
    34   43   20 1    
    35   44   20 1    
    36   22   21 1    
    37   23   21 1    
    38   45   21 1    
    39   52   22 1    
    40   53   22 1    
    41   54   22 1    
    42   55   23 1    
    43   56   23 1    
    44   57   23 1    
    45   25   24 1    
    46   46   24 1    
    47   26   25 1    
    48   29   25 1    
    49   47   25 1    
    50   27   26 1    
    51   48   26 1    
    52   49   26 1    
    53   28   27 1    
    54   50   27 1    
    55   51   27 1    
    56   58   28 1    
    57   59   28 1    
    58   60   28 1    
    59   30   29 ar   
    60   31   29 ar   
@<TRIPOS>SUBSTRUCTURE
     1 UBW317      1 GROUP   
@<TRIPOS>SET

