#    Name: 1I91_1_CAVITY_N1_ALL.mol2
#    Modification time : Tue Mar 11 07:54:25 2014

@<TRIPOS>MOLECULE
1I91_1_CAVITY_N1_ALL.mol2
   87     0     6     0     0
SMALL
NO_CHARGES


@<TRIPOS>ATOM
      1 O           1.6805    3.0906   10.5088 O.2       2 ALA2        0.0000 
      2 CA         -1.1924    4.8276   15.0064 C.3       5 GLY6        0.0000 
      3 CA         -2.4191    5.6835   14.8929 C.3       5 GLY6        0.0000 
      4 CZ         -3.6457    6.5393   14.7793 C.ar      4 PHE5        0.0000 
      5 N          -1.3363    4.4305   13.5672 N.2       2 ALA2        0.0000 
      6 DU         -2.5630    5.2863   13.4536 H         6 CUB7        0.0000 
      7 DU         -3.7896    6.1421   13.3401 H         6 CUB7        0.0000 
      8 CZ         -5.0163    6.9979   13.2265 C.ar      4 PHE5        0.0000 
      9 N          -0.2535    3.1775   12.2414 N.2       2 ALA2        0.0000 
     10 N          -1.4802    4.0333   12.1279 N.2       2 ALA2        0.0000 
     11 DU         -3.9335    5.7449   11.9008 H         6 CUB7        0.0000 
     12 DU         -5.1602    6.6007   11.7872 H         6 CUB7        0.0000 
     13 CZ         -6.3868    7.4565   11.6737 C.ar      4 PHE5        0.0000 
     14 CA         -7.6135    8.3123   11.5602 C.3       5 GLY6        0.0000 
     15 CZ          0.8292    1.9245   10.9157 C.ar      4 PHE5        0.0000 
     16 CZ         -0.3974    2.7803   10.8021 C.ar      4 PHE5        0.0000 
     17 DU         -1.6241    3.6361   10.6886 H         6 CUB7        0.0000 
     18 DU         -2.8507    4.4919   10.5750 H         6 CUB7        0.0000 
     19 DU         -4.0774    5.3477   10.4615 H         6 CUB7        0.0000 
     20 O          -0.5413    2.3831    9.3628 O.2       2 ALA2        0.0000 
     21 OG         -2.0437    3.6615   15.4133 O.2       1 SER1        0.0000 
     22 CA         -3.2703    4.5173   15.2998 C.3       5 GLY6        0.0000 
     23 CA         -4.4970    5.3732   15.1862 C.3       5 GLY6        0.0000 
     24 CZ         -5.7236    6.2290   15.0727 C.ar      4 PHE5        0.0000 
     25 OG         -2.1875    3.2643   13.9741 O.2       1 SER1        0.0000 
     26 DU         -3.4142    4.1202   13.8605 H         6 CUB7        0.0000 
     27 DU         -4.6409    4.9760   13.7470 H         6 CUB7        0.0000 
     28 CZ         -5.8675    5.8318   13.6334 C.ar      4 PHE5        0.0000 
     29 CZ         -7.0942    6.6876   13.5199 C.ar      4 PHE5        0.0000 
     30 OG         -1.1048    2.0113   12.6483 O.2       1 SER1        0.0000 
     31 OG         -2.3314    2.8672   12.5348 O.2       1 SER1        0.0000 
     32 DU         -3.5581    3.7230   12.4212 H         6 CUB7        0.0000 
     33 O          -4.7847    4.5788   12.3077 O.2       2 ALA2        0.0000 
     34 O          -6.0114    5.4346   12.1941 O.2       2 ALA2        0.0000 
     35 O          -7.2381    6.2904   12.0806 O.2       2 ALA2        0.0000 
     36 CA         -8.4647    7.1462   11.9671 C.3       5 GLY6        0.0000 
     37 CZ         -1.2487    1.6142   11.2090 C.ar      4 PHE5        0.0000 
     38 O          -2.4753    2.4700   11.0955 O.2       2 ALA2        0.0000 
     39 DU         -3.7020    3.3258   10.9819 H         6 CUB7        0.0000 
     40 O          -4.9286    4.1816   10.8684 O.2       2 ALA2        0.0000 
     41 O          -1.3925    1.2170    9.7697 O.2       2 ALA2        0.0000 
     42 O          -3.8459    2.9286    9.5427 O.2       2 ALA2        0.0000 
     43 OG         -2.8949    2.4954   15.8202 O.2       1 SER1        0.0000 
     44 CA         -4.1216    3.3512   15.7067 C.3       5 GLY6        0.0000 
     45 CA         -5.3482    4.2070   15.5932 C.3       5 GLY6        0.0000 
     46 CA         -6.5749    5.0628   15.4796 C.3       5 GLY6        0.0000 
     47 OG         -4.2654    2.9540   14.2674 O.2       1 SER1        0.0000 
     48 O          -5.4921    3.8098   14.1539 O.2       2 ALA2        0.0000 
     49 O          -6.7188    4.6657   14.0403 O.2       2 ALA2        0.0000 
     50 CA         -7.9454    5.5215   13.9268 C.3       5 GLY6        0.0000 
     51 OG         -3.1827    1.7010   12.9417 O.2       1 SER1        0.0000 
     52 O          -4.4093    2.5568   12.8281 O.2       2 ALA2        0.0000 
     53 O          -5.6360    3.4127   12.7146 O.2       2 ALA2        0.0000 
     54 OG         -2.0999    0.4480   11.6159 O.2       1 SER1        0.0000 
     55 OG         -3.3265    1.3039   11.5024 O.2       1 SER1        0.0000 
     56 N          -4.5532    2.1597   11.3888 N.2       2 ALA2        0.0000 
     57 CA         -2.2438    0.0509   10.1766 C.3       5 GLY6        0.0000 
     58 O          -3.4704    0.9067   10.0631 O.2       2 ALA2        0.0000 
     59 N          -4.6971    1.7625    9.9496 N.2       2 ALA2        0.0000 
     60 OG         -3.7461    1.3293   16.2271 O.2       1 SER1        0.0000 
     61 CA         -4.9728    2.1851   16.1136 C.3       5 GLY6        0.0000 
     62 CA         -6.1995    3.0409   16.0001 C.3       5 GLY6        0.0000 
     63 CA         -7.4261    3.8967   15.8865 C.3       5 GLY6        0.0000 
     64 OG         -3.8900    0.9321   14.7879 O.2       1 SER1        0.0000 
     65 N          -5.1167    1.7879   14.6743 N.2       2 ALA2        0.0000 
     66 O          -6.3433    2.6437   14.5608 O.2       2 ALA2        0.0000 
     67 CA         -7.5700    3.4995   14.4472 C.3       5 GLY6        0.0000 
     68 OG         -4.0339    0.5349   13.3486 O.2       1 SER1        0.0000 
     69 O          -5.2606    1.3907   13.2350 O.2       2 ALA2        0.0000 
     70 O          -6.4872    2.2465   13.1215 O.2       2 ALA2        0.0000 
     71 CA         -2.9511   -0.7181   12.0228 C.3       5 GLY6        0.0000 
     72 DU         -4.1778    0.1377   11.9093 H         6 CUB7        0.0000 
     73 O          -5.4044    0.9935   11.7957 O.2       2 ALA2        0.0000 
     74 CA         -3.0950   -1.1153   10.5835 C.3       5 GLY6        0.0000 
     75 O          -4.3217   -0.2595   10.4700 O.2       2 ALA2        0.0000 
     76 N          -5.5483    0.5964   10.3565 N.2       2 ALA2        0.0000 
     77 CA         -5.6801    1.4162   17.9598 C.3       5 GLY6        0.0000 
     78 CA         -6.9068    2.2720   17.8462 C.3       5 GLY6        0.0000 
     79 OG         -4.5974    0.1632   16.6340 O.2       1 SER1        0.0000 
     80 OD1        -5.8240    1.0190   16.5205 O.3       3 ASP3        0.0000 
     81 CA         -7.0507    1.8748   16.4070 C.3       5 GLY6        0.0000 
     82 OD1        -4.7413   -0.2340   15.1948 O.3       3 ASP3        0.0000 
     83 N          -4.8851   -0.6312   13.7555 N.2       2 ALA2        0.0000 
     84 CA         -3.8024   -1.8842   12.4297 C.3       5 GLY6        0.0000 
     85 CA         -5.0290   -1.0284   12.3162 C.3       5 GLY6        0.0000 
     86 CA         -3.9462   -2.2814   10.9904 C.3       5 GLY6        0.0000 
     87 CA         -5.1729   -1.4256   10.8769 C.3       5 GLY6        0.0000 
@<TRIPOS>BOND
@<TRIPOS>SUBSTRUCTURE
     1 SER1       21 GROUP   
     2 ALA2        1 GROUP   
     3 ASP3       80 GROUP   
     4 PHE5        4 GROUP   
     5 GLY6        2 GROUP   
     6 CUB7        6 GROUP   
@<TRIPOS>SET

