#    Name: 1i91_INQ_1_INTS_M
#    Modification time : Tue Mar 25 06:47:55 2014

@<TRIPOS>MOLECULE
1i91_INQ_1_INTS_M
   37     0    12     0     0
SMALL
NO_CHARGES


@<TRIPOS>ATOM
      1 O          -4.8500   -1.8115   17.0735 O.2       1 ALC1        0.0000 
      2 O          -5.7960   -0.9580   16.1640 O.2       9 ALL1        0.0000 
      3 O          -3.9040   -2.6650   17.9830 O.2       5 ALP1        0.0000 
      4 Zn         -6.3875   -1.5540   15.8265 Zn        3 ZIC7        0.0000 
      5 Zn         -5.7960   -0.9580   16.1640 Zn       11 ZIL7        0.0000 
      6 Zn         -6.9790   -2.1500   15.4890 Zn        7 ZIP7        0.0000 
      7 CA         -3.0040    0.0380   15.1835 C.3       4 GLC5        0.0000 
      8 CA         -4.4210    1.7460   15.3990 C.3      12 GLL5        0.0000 
      9 CA         -1.5870   -1.6700   14.9680 C.3       8 GLP5        0.0000 
     10 CA         -8.3240    2.9325   15.4655 C.3       4 GLC5        0.0000 
     11 CA         -6.4750    2.9090   15.7660 C.3      12 GLL5        0.0000 
     12 CA        -10.1730    2.9560   15.1650 C.3       8 GLP5        0.0000 
     13 Zn         -5.7725    1.7845   14.4440 Zn        3 ZIC7        0.0000 
     14 Zn         -4.5660    5.7190   13.3990 Zn       11 ZIL7        0.0000 
     15 CA         -3.5600    9.8695   13.8865 C.3       4 GLC5        0.0000 
     16 CA         -1.5760    9.5000   13.1220 C.3      12 GLL5        0.0000 
     17 CA         -5.5440   10.2390   14.6510 C.3       8 GLP5        0.0000 
     18 CA         -3.8050    9.2355   14.9950 C.3       4 GLC5        0.0000 
     19 CA         -2.0660    8.2320   15.3390 C.3      12 GLL5        0.0000 
     20 CA         -3.1990    9.2690   16.6860 C.3       4 GLC5        0.0000 
     21 CA         -4.3320   10.3060   18.0330 C.3       8 GLP5        0.0000 
     22 CA         -1.0810    8.5430   17.3290 C.3       4 GLC5        0.0000 
     23 CA         -0.0960    8.8540   19.3190 C.3       8 GLP5        0.0000 
     24 CA         -8.0710    5.5985   10.2830 C.3       4 GLC5        0.0000 
     25 CA         -6.2290    6.3580    9.4470 C.3      12 GLL5        0.0000 
     26 CA         -9.9130    4.8390   11.1190 C.3       8 GLP5        0.0000 
     27 N          -4.2410    0.0000   18.7810 N.am      2 SEC2        0.0000 
     28 N          -5.5090    0.2980   18.1190 N.am     10 SEL2        0.0000 
     29 N          -2.9730   -0.2980   19.4430 N.am      6 SEP2        0.0000 
     30 CA         -2.1495    6.3513   16.6452 C.3       4 GLC5        0.0000 
     31 CA         -1.9740    6.9030   14.5960 C.3      12 GLL5        0.0000 
     32 CA         -2.2790    5.1350   18.3230 C.3       8 GLP5        0.0000 
     33 CA         -0.3910    6.5608   15.4812 C.3       4 GLC5        0.0000 
     34 CA          1.2380    5.5540   15.9950 C.3       8 GLP5        0.0000 
     35 CA         -4.9797    3.5878   16.9606 C.3       4 GLC5        0.0000 
     36 CA         -4.3170    2.9990   14.7280 C.3      12 GLL5        0.0000 
     37 CA         -4.6080    4.3350   18.6410 C.3       8 GLP5        0.0000 
@<TRIPOS>BOND
@<TRIPOS>SUBSTRUCTURE
     1 ALC1        1 GROUP        1 X    ALC  0     ROOT ALC X 1
     2 SEC2       27 GROUP        1 X    SEC  0     **** SEC X 2
     3 ZIC7        4 GROUP        1 X    ZIC  0     **** ZIC X 5
     4 GLC5        7 GROUP        1 X    GLC  0     **** GLC X 6
     5 ALP1        3 GROUP        1 Y    ALP  0     ROOT ALP Y 8
     6 SEP2       29 GROUP        1 Y    SEP  0     **** SEP Y 9
     7 ZIP7        6 GROUP        1 Y    ZIP  0     **** ZIP Y 12
     8 GLP5        9 GROUP        1 Y    GLP  0     **** GLP Y 13
     9 ALL1        2 GROUP        1 Z    ALL  0     ROOT ALL Z 15
    10 SEL2       28 GROUP        1 Z    SEL  0     **** SEL Z 16
    11 ZIL7        5 GROUP        1 Z    ZIL  0     **** ZIL Z 19
    12 GLL5        8 GROUP        1 Z    GLL  0     **** GLL Z 20
@<TRIPOS>SET

