#    Name: 1i91_INQ_1_ligand
#    Modification time : Tue Mar 25 06:47:56 2014

@<TRIPOS>MOLECULE
1i91_INQ_1_ligand
   48    51     1     0     0
SMALL
NO_CHARGES


@<TRIPOS>ATOM
      1 S01        -6.1530    0.2870   16.8760 S.o2      1 INQ555      0.0000 
      2 O02        -7.5280    0.3360   17.0620 O.2       1 INQ555      0.0000 
      3 N03        -5.7960   -0.9580   16.1640 N.pl3     1 INQ555      0.0000 
      4 C04        -5.7080    1.6050   16.0510 C.2       1 INQ555      0.0000 
      5 C05        -4.4210    1.7460   15.3990 C.2       1 INQ555      0.0000 
      6 C06        -4.3170    2.9990   14.7280 C.2       1 INQ555      0.0000 
      7 C07        -5.5490    3.7790   14.9020 C.2       1 INQ555      0.0000 
      8 S08        -6.4750    2.9090   15.7660 S.3       1 INQ555      0.0000 
      9 C09        -3.2340    3.5670   13.9310 C.2       1 INQ555      0.0000 
     10 C10        -3.2460    4.9490   13.1950 C.2       1 INQ555      0.0000 
     11 N11        -4.5660    5.7190   13.3990 N.pl3     1 INQ555      0.0000 
     12 S12        -5.6820    5.1790   14.2850 S.o2      1 INQ555      0.0000 
     13 O13        -5.7200    6.1470   15.3100 O.2       1 INQ555      0.0000 
     14 O14        -6.9280    5.2890   13.6260 O.2       1 INQ555      0.0000 
     15 C15        -2.1680    5.5830   12.3100 C.3       1 INQ555      0.0000 
     16 C16        -1.3740    8.1220   12.3990 C.3       1 INQ555      0.0000 
     17 C17        -1.5760    9.5000   13.1220 C.3       1 INQ555      0.0000 
     18 O18        -1.3080    9.3870   14.6680 O.3       1 INQ555      0.0000 
     19 C19        -2.0660    8.2320   15.3390 C.3       1 INQ555      0.0000 
     20 C20        -1.9740    6.9030   14.5960 C.3       1 INQ555      0.0000 
     21 N21        -2.3010    7.0400   13.0300 N.4       1 INQ555      0.0000 
     22 C22        -5.7150    7.1820   11.6870 C.ar      1 INQ555      0.0000 
     23 C23        -5.1200    5.9270   12.0430 C.ar      1 INQ555      0.0000 
     24 C24        -5.0930    4.8510   11.0330 C.ar      1 INQ555      0.0000 
     25 C25        -5.6500    5.0030    9.6610 C.ar      1 INQ555      0.0000 
     26 C26        -6.2290    6.3580    9.4470 C.ar      1 INQ555      0.0000 
     27 C27        -6.2930    7.4860   10.4080 C.ar      1 INQ555      0.0000 
     28 O28        -6.8860    8.8780   10.1060 O.3       1 INQ555      0.0000 
     29 O29        -5.5090    0.2980   18.1190 O.2       1 INQ555      0.0000 
     30 H          -5.2017   -1.5925   16.6582 H         1 INQ555      0.0000 
     31 H          -3.7423    1.0807   15.4235 H         1 INQ555      0.0000 
     32 H          -2.3514    3.0316   13.8170 H         1 INQ555      0.0000 
     33 H          -2.4899    5.6886   11.3563 H         1 INQ555      0.0000 
     34 H          -1.2495    5.2208   12.5321 H         1 INQ555      0.0000 
     35 H          -0.3453    7.8180   12.5113 H         1 INQ555      0.0000 
     36 H          -1.6214    8.2373   11.3555 H         1 INQ555      0.0000 
     37 H          -2.5952    9.8310   12.9685 H         1 INQ555      0.0000 
     38 H          -0.8876   10.2216   12.7010 H         1 INQ555      0.0000 
     39 H          -3.1276    8.5169   15.4377 H         1 INQ555      0.0000 
     40 H          -1.6745    8.1005   16.3624 H         1 INQ555      0.0000 
     41 H          -2.6827    6.1867   15.0113 H         1 INQ555      0.0000 
     42 H          -0.9687    6.4906   14.6800 H         1 INQ555      0.0000 
     43 H          -3.3261    7.3492   12.9458 H         1 INQ555      0.0000 
     44 H          -5.7297    7.9370   12.4165 H         1 INQ555      0.0000 
     45 H          -4.6713    3.9536   11.2836 H         1 INQ555      0.0000 
     46 H          -5.6379    4.3296    9.0122 H         1 INQ555      0.0000 
     47 H          -6.6454    6.5361    8.4914 H         1 INQ555      0.0000 
     48 H          -6.0940    9.4681    9.9491 H         1 INQ555      0.0000 
@<TRIPOS>BOND
     1    2    1 2    
     2    3    1 1    
     3    4    1 1    
     4   29    1 2    
     5   30    3 1    
     6    5    4 2    
     7    8    4 1    
     8    6    5 1    
     9   31    5 1    
    10    7    6 2    
    11    9    6 1    
    12    8    7 1    
    13   12    7 1    
    14   10    9 2    
    15   32    9 1    
    16   11   10 1    
    17   15   10 1    
    18   12   11 1    
    19   23   11 1    
    20   13   12 2    
    21   14   12 2    
    22   21   15 1    
    23   33   15 1    
    24   34   15 1    
    25   17   16 1    
    26   21   16 1    
    27   35   16 1    
    28   36   16 1    
    29   18   17 1    
    30   37   17 1    
    31   38   17 1    
    32   19   18 1    
    33   20   19 1    
    34   39   19 1    
    35   40   19 1    
    36   21   20 1    
    37   41   20 1    
    38   42   20 1    
    39   43   21 1    
    40   23   22 ar   
    41   27   22 ar   
    42   44   22 1    
    43   24   23 ar   
    44   25   24 ar   
    45   45   24 1    
    46   26   25 ar   
    47   46   25 1    
    48   27   26 ar   
    49   47   26 1    
    50   28   27 1    
    51   48   28 1    
@<TRIPOS>SUBSTRUCTURE
     1 INQ555      1 GROUP   
@<TRIPOS>SET

