#    Name: 1vf5_TDS_2_INTS_M
#    Modification time : Tue Mar 25 07:46:41 2014

@<TRIPOS>MOLECULE
1vf5_TDS_2_INTS_M
   71     0     3     0     0
SMALL
NO_CHARGES


@<TRIPOS>ATOM
      1 CA         67.6215   -9.9835  121.3790 C.3       1 GLC5        0.0000 
      2 CA         66.4180   -8.9770  120.4930 C.3       3 GLL5        0.0000 
      3 CA         68.8250  -10.9900  122.2650 C.3       2 GLP5        0.0000 
      4 CA         67.4440   -7.7265  120.9105 C.3       1 GLC5        0.0000 
      5 CA         68.4700   -6.4760  121.3280 C.3       2 GLP5        0.0000 
      6 CA         65.6855   -8.8835  122.3765 C.3       1 GLC5        0.0000 
      7 CA         64.9530   -8.7900  124.2600 C.3       2 GLP5        0.0000 
      8 CA         67.4600   -7.6895  119.0430 C.3       1 GLC5        0.0000 
      9 CA         66.0310   -8.5660  119.2220 C.3       3 GLL5        0.0000 
     10 CA         68.8890   -6.8130  118.8640 C.3       2 GLP5        0.0000 
     11 CA         61.6625   -8.1850  118.8195 C.3       1 GLC5        0.0000 
     12 CA         62.6270   -8.1990  117.2470 C.3       3 GLL5        0.0000 
     13 CA         60.6980   -8.1710  120.3920 C.3       2 GLP5        0.0000 
     14 CA         68.2380   -4.3420  111.0645 C.3       1 GLC5        0.0000 
     15 CA         66.9490   -6.1190  111.0340 C.3       3 GLL5        0.0000 
     16 CA         69.5270   -2.5650  111.0950 C.3       2 GLP5        0.0000 
     17 CA         67.9785   -7.1405  112.3600 C.3       1 GLC5        0.0000 
     18 CA         69.0080   -8.1620  113.6860 C.3       2 GLP5        0.0000 
     19 CA         65.0555   -7.4810  107.8205 C.3       1 GLC5        0.0000 
     20 CA         66.6900   -7.5810  109.0660 C.3       3 GLL5        0.0000 
     21 CA         63.4210   -7.3810  106.5750 C.3       2 GLP5        0.0000 
     22 CA         64.0665   -8.4260  109.2290 C.3       1 GLC5        0.0000 
     23 CA         65.7820   -8.5650  109.8110 C.3       3 GLL5        0.0000 
     24 CA         62.3510   -8.2870  108.6470 C.3       2 GLP5        0.0000 
     25 CA         69.1750   -3.1475  104.0910 C.3       1 GLC5        0.0000 
     26 CA         68.3040   -4.4280  105.4970 C.3       3 GLL5        0.0000 
     27 CA         70.0460   -1.8670  102.6850 C.3       2 GLP5        0.0000 
     28 CA         70.0185   -3.3985  106.3460 C.3       1 GLC5        0.0000 
     29 CA         71.7330   -2.3690  107.1950 C.3       2 GLP5        0.0000 
     30 CA         68.7960   -2.0955  103.7450 C.3       1 GLC5        0.0000 
     31 CA         67.5460   -2.3240  104.8050 C.3       3 GLL5        0.0000 
     32 CA         68.3985   -0.4585  104.6160 C.3       1 GLC5        0.0000 
     33 CA         69.2510    1.4070  104.4270 C.3       2 GLP5        0.0000 
     34 CA         67.9005   -8.0610  102.3310 C.3       1 GLC5        0.0000 
     35 CA         67.9200   -8.5770  104.4370 C.3       3 GLL5        0.0000 
     36 CA         67.8810   -7.5450  100.2250 C.3       2 GLP5        0.0000 
     37 CA         68.0425  -10.0830  103.5105 C.3       1 GLC5        0.0000 
     38 CA         68.1650  -11.5890  102.5840 C.3       2 GLP5        0.0000 
     39 CA         69.5640   -9.6965  105.0900 C.3       1 GLC5        0.0000 
     40 CA         71.2080  -10.8160  105.7430 C.3       2 GLP5        0.0000 
     41 CA         69.3190   -7.5920  104.7065 C.3       1 GLC5        0.0000 
     42 CA         70.7180   -6.6070  104.9760 C.3       2 GLP5        0.0000 
     43 CA         65.7797  -10.0308  118.3517 C.3       1 GLC5        0.0000 
     44 CA         65.3350  -11.2900  116.8460 C.3       2 GLP5        0.0000 
     45 CA         64.8203   -9.8362  117.6045 C.3       1 GLC5        0.0000 
     46 CA         64.5090   -8.5820  119.0730 C.3       3 GLL5        0.0000 
     47 CA         62.5018   -8.2767  119.3775 C.3       1 GLC5        0.0000 
     48 CA         64.1020   -8.1830  117.6530 C.3       3 GLL5        0.0000 
     49 CA         61.8792   -9.4055  117.2230 C.3       1 GLC5        0.0000 
     50 CA         60.3940  -10.6200  116.9960 C.3       2 GLP5        0.0000 
     51 CA         63.5915   -9.6847  116.0012 C.3       1 GLC5        0.0000 
     52 CA         64.6480  -11.3380  115.4960 C.3       2 GLP5        0.0000 
     53 CA         60.9460   -7.8420  115.9525 C.3       1 GLC5        0.0000 
     54 CA         62.4430   -7.8640  115.7660 C.3       3 GLL5        0.0000 
     55 CA         59.2290   -8.5360  116.2930 C.3       2 GLP5        0.0000 
     56 CA         68.8800   -7.4155  109.2670 C.3       1 GLC5        0.0000 
     57 CA         67.2460   -6.4850  109.7240 C.3       3 GLL5        0.0000 
     58 CA         70.7920   -7.7980  109.1390 C.3       2 GLP5        0.0000 
     59 CA         67.1770   -9.7085  109.6058 C.3       1 GLC5        0.0000 
     60 CA         68.1180  -11.3440  109.7730 C.3       2 GLP5        0.0000 
     61 CA         69.2805   -6.9890  108.2450 C.3       1 GLC5        0.0000 
     62 CA         67.4890   -6.7020  106.9840 C.3       3 GLL5        0.0000 
     63 CA         65.4222   -7.0295  106.4325 C.3       1 GLC5        0.0000 
     64 CA         69.2435   -6.3935  106.1635 C.3       1 GLC5        0.0000 
     65 CA         70.0998   -4.2435  107.7867 C.3       1 GLC5        0.0000 
     66 CA         68.0490   -5.6580  107.7180 C.3       3 GLL5        0.0000 
     67 CA         71.9110   -3.4630  108.2100 C.3       2 GLP5        0.0000 
     68 CA         69.5670   -5.5080  105.6145 C.3       1 GLC5        0.0000 
     69 CA         68.5280   -4.3900  107.0090 C.3       3 GLL5        0.0000 
     70 CA         69.1358   -6.3507  105.1033 C.3       1 GLC5        0.0000 
     71 CA         67.7490   -5.5350  104.8650 C.3       3 GLL5        0.0000 
@<TRIPOS>BOND
@<TRIPOS>SUBSTRUCTURE
     1 GLC5        1 GROUP        1 X    GLC  0     ROOT GLC X 6
     2 GLP5        3 GROUP        1 Y    GLP  0     ROOT GLP Y 13
     3 GLL5        2 GROUP        1 Z    GLL  0     ROOT GLL Z 20
@<TRIPOS>SET

