#    Name: 1vf5_TDS_2_ligand
#    Modification time : Tue Mar 25 07:46:41 2014

@<TRIPOS>MOLECULE
1vf5_TDS_2_ligand
   68    69     1     0     0
SMALL
NO_CHARGES


@<TRIPOS>ATOM
      1 CBC        66.4180   -8.9770  120.4930 C.3       1 TDS1304     0.0000 
      2 CBB        66.0310   -8.5660  119.2220 C.3       1 TDS1304     0.0000 
      3 CBA        64.5090   -8.5820  119.0730 C.3       1 TDS1304     0.0000 
      4 CAZ        64.1020   -8.1830  117.6530 C.3       1 TDS1304     0.0000 
      5 CAY        62.6270   -8.1990  117.2470 C.3       1 TDS1304     0.0000 
      6 CAX        62.4430   -7.8640  115.7660 C.3       1 TDS1304     0.0000 
      7 CAW        62.8830   -6.4320  115.4580 C.3       1 TDS1304     0.0000 
      8 CAV        62.5270   -6.0610  114.0180 C.3       1 TDS1304     0.0000 
      9 CAU        62.8760   -4.6710  113.4810 C.3       1 TDS1304     0.0000 
     10 CAT        63.6800   -4.7430  112.1800 C.3       1 TDS1304     0.0000 
     11 CAS        65.0890   -5.3150  112.3670 C.3       1 TDS1304     0.0000 
     12 CAR        65.6840   -5.5500  111.1320 C.3       1 TDS1304     0.0000 
     13 CAQ        66.9490   -6.1190  111.0340 C.3       1 TDS1304     0.0000 
     14 CAP        67.2460   -6.4850  109.7240 C.2       1 TDS1304     0.0000 
     15 OAO        68.1920   -5.7500  109.0710 O.3       1 TDS1304     0.0000 
     16 CAH        66.6900   -7.5810  109.0660 C.2       1 TDS1304     0.0000 
     17 CAI        65.7820   -8.5650  109.8110 C.3       1 TDS1304     0.0000 
     18 CAG        66.9530   -7.7610  107.7100 C.2       1 TDS1304     0.0000 
     19 OAC        66.7360   -8.8460  107.1710 O.2       1 TDS1304     0.0000 
     20 CAF        67.4890   -6.7020  106.9840 C.ar      1 TDS1304     0.0000 
     21 CAN        68.0490   -5.6580  107.7180 C.ar      1 TDS1304     0.0000 
     22 CAM        68.5280   -4.3900  107.0090 C.ar      1 TDS1304     0.0000 
     23 OBD        69.1240   -3.3500  107.6500 O.3       1 TDS1304     0.0000 
     24 CAL        68.3040   -4.4280  105.4970 C.ar      1 TDS1304     0.0000 
     25 OAK        68.6600   -3.2220  104.8190 O.3       1 TDS1304     0.0000 
     26 CAJ        67.5460   -2.3240  104.8050 C.3       1 TDS1304     0.0000 
     27 CAD        67.7490   -5.5350  104.8650 C.ar      1 TDS1304     0.0000 
     28 CAE        67.3580   -6.6540  105.5960 C.ar      1 TDS1304     0.0000 
     29 OAB        66.8720   -7.7230  104.9080 O.3       1 TDS1304     0.0000 
     30 CAA        67.9200   -8.5770  104.4370 C.3       1 TDS1304     0.0000 
     31 H          66.4402   -9.2152  118.4237 H         1 TDS1304     0.0000 
     32 H          66.3673   -7.5372  118.9885 H         1 TDS1304     0.0000 
     33 H          64.0714   -7.8824  119.7813 H         1 TDS1304     0.0000 
     34 H          64.1379   -9.5821  119.2847 H         1 TDS1304     0.0000 
     35 H          64.6720   -8.8360  116.9285 H         1 TDS1304     0.0000 
     36 H          64.5106   -7.1498  117.4486 H         1 TDS1304     0.0000 
     37 H          62.0815   -7.4696  117.8500 H         1 TDS1304     0.0000 
     38 H          62.2118   -9.1897  117.4447 H         1 TDS1304     0.0000 
     39 H          61.3915   -7.9811  115.4999 H         1 TDS1304     0.0000 
     40 H          63.0334   -8.5576  115.1655 H         1 TDS1304     0.0000 
     41 H          63.9582   -6.3497  115.5947 H         1 TDS1304     0.0000 
     42 H          62.3827   -5.7485  116.1391 H         1 TDS1304     0.0000 
     43 H          61.4184   -6.2225  113.8775 H         1 TDS1304     0.0000 
     44 H          62.9920   -6.8282  113.3324 H         1 TDS1304     0.0000 
     45 H          63.4593   -4.1326  114.2327 H         1 TDS1304     0.0000 
     46 H          61.9525   -4.1144  113.3005 H         1 TDS1304     0.0000 
     47 H          63.7586   -3.7338  111.7521 H         1 TDS1304     0.0000 
     48 H          63.1352   -5.3661  111.4571 H         1 TDS1304     0.0000 
     49 H          64.9866   -6.2325  112.9710 H         1 TDS1304     0.0000 
     50 H          65.6522   -4.5903  112.9792 H         1 TDS1304     0.0000 
     51 H          65.6759   -4.5570  110.5219 H         1 TDS1304     0.0000 
     52 H          64.9464   -6.1713  110.4776 H         1 TDS1304     0.0000 
     53 H          67.0274   -7.0103  111.7120 H         1 TDS1304     0.0000 
     54 H          67.7258   -5.4077  111.4226 H         1 TDS1304     0.0000 
     55 H          67.6244   -5.5284  103.8384 H         1 TDS1304     0.0000 
     56 H          67.4125   -8.9727  120.5980 H         1 TDS1304     0.0000 
     57 H          66.0455   -8.3820  121.2052 H         1 TDS1304     0.0000 
     58 H          66.1061   -9.9056  120.6941 H         1 TDS1304     0.0000 
     59 H          66.2539   -8.9967  110.5797 H         1 TDS1304     0.0000 
     60 H          64.9702   -8.1137  110.1815 H         1 TDS1304     0.0000 
     61 H          65.4617   -9.3001  109.2135 H         1 TDS1304     0.0000 
     62 H          67.7657   -1.4669  104.3390 H         1 TDS1304     0.0000 
     63 H          66.7564   -2.7190  104.3353 H         1 TDS1304     0.0000 
     64 H          67.2485   -2.0869  105.7298 H         1 TDS1304     0.0000 
     65 H          68.5438   -8.0948  103.8219 H         1 TDS1304     0.0000 
     66 H          68.4711   -8.9382  105.1892 H         1 TDS1304     0.0000 
     67 H          67.5607   -9.3627  103.9333 H         1 TDS1304     0.0000 
     68 H          70.0779   -3.3744  107.3511 H         1 TDS1304     0.0000 
@<TRIPOS>BOND
     1    2    1 1    
     2   56    1 1    
     3   57    1 1    
     4   58    1 1    
     5    3    2 1    
     6   31    2 1    
     7   32    2 1    
     8    4    3 1    
     9   33    3 1    
    10   34    3 1    
    11    5    4 1    
    12   35    4 1    
    13   36    4 1    
    14    6    5 1    
    15   37    5 1    
    16   38    5 1    
    17    7    6 1    
    18   39    6 1    
    19   40    6 1    
    20    8    7 1    
    21   41    7 1    
    22   42    7 1    
    23    9    8 1    
    24   43    8 1    
    25   44    8 1    
    26   10    9 1    
    27   45    9 1    
    28   46    9 1    
    29   11   10 1    
    30   47   10 1    
    31   48   10 1    
    32   12   11 1    
    33   49   11 1    
    34   50   11 1    
    35   13   12 1    
    36   51   12 1    
    37   52   12 1    
    38   14   13 1    
    39   53   13 1    
    40   54   13 1    
    41   15   14 1    
    42   16   14 2    
    43   21   15 1    
    44   17   16 1    
    45   18   16 1    
    46   59   17 1    
    47   60   17 1    
    48   61   17 1    
    49   19   18 2    
    50   20   18 1    
    51   21   20 ar   
    52   28   20 ar   
    53   22   21 ar   
    54   23   22 1    
    55   24   22 ar   
    56   68   23 1    
    57   25   24 1    
    58   27   24 ar   
    59   26   25 1    
    60   62   26 1    
    61   63   26 1    
    62   64   26 1    
    63   28   27 ar   
    64   55   27 1    
    65   29   28 1    
    66   30   29 1    
    67   65   30 1    
    68   66   30 1    
    69   67   30 1    
@<TRIPOS>SUBSTRUCTURE
     1 TDS1304     1 GROUP   
@<TRIPOS>SET

