#    Name: 4e4q_RRH_1_INTS_M
#    Modification time : Tue Mar 25 10:37:52 2014

@<TRIPOS>MOLECULE
4e4q_RRH_1_INTS_M
   54     0     3     0     0
SMALL
NO_CHARGES


@<TRIPOS>ATOM
      1 CA         13.0285   17.9680   12.2460 C.3       1 GLC5        0.0000 
      2 CA         14.4420   17.3100   11.8810 C.3       3 GLL5        0.0000 
      3 CA         11.6150   18.6260   12.6110 C.3       2 GLP5        0.0000 
      4 CA         13.9300   17.7720    7.7655 C.3       1 GLC5        0.0000 
      5 CA         14.4550   17.3160    9.3650 C.3       3 GLL5        0.0000 
      6 CA         13.4050   18.2280    6.1660 C.3       2 GLP5        0.0000 
      7 CA         20.4715   16.0530   11.3895 C.3       1 GLC5        0.0000 
      8 CA         19.3030   17.2260   10.7310 C.3       3 GLL5        0.0000 
      9 CA         21.6400   14.8800   12.0480 C.3       2 GLP5        0.0000 
     10 CA         14.1195   20.0355   10.9135 C.3       1 GLC5        0.0000 
     11 CA         15.7190   20.2190    9.4110 C.3       3 GLL5        0.0000 
     12 CA         12.5200   19.8520   12.4160 C.3       2 GLP5        0.0000 
     13 CA         15.6995   24.4470    6.2565 C.3       1 GLC5        0.0000 
     14 CA         14.8800   24.0860    8.0760 C.3       3 GLL5        0.0000 
     15 CA         16.5190   24.8080    4.4370 C.3       2 GLP5        0.0000 
     16 CA         11.6945   29.1925   10.7820 C.3       1 GLC5        0.0000 
     17 CA         12.3060   27.1770   11.2350 C.3       3 GLL5        0.0000 
     18 CA         11.0830   31.2080   10.3290 C.3       2 GLP5        0.0000 
     19 CA         13.6357   18.7410   11.2063 C.3       1 GLC5        0.0000 
     20 CA         15.0480   17.9440   10.6280 C.3       3 GLL5        0.0000 
     21 CA         16.7078   14.6617   11.5285 C.3       1 GLC5        0.0000 
     22 CA         18.4120   16.3120   11.2820 C.3       3 GLL5        0.0000 
     23 CA         15.6850   12.8830   11.7980 C.3       2 GLP5        0.0000 
     24 CA         19.0703   15.0938   11.3390 C.3       1 GLC5        0.0000 
     25 CA         17.0490   16.5690   11.2360 C.3       3 GLL5        0.0000 
     26 CA         20.4100   13.7470   11.4190 C.3       2 GLP5        0.0000 
     27 CA         18.9549   17.7966   12.5490 C.3       1 GLC5        0.0000 
     28 CA         19.3930   18.7600   14.1030 C.3       2 GLP5        0.0000 
     29 CA         18.7520   19.4155   11.6530 C.3       1 GLC5        0.0000 
     30 CA         18.8200   18.3880   10.1390 C.3       3 GLL5        0.0000 
     31 CA         19.3670   20.3120   13.1910 C.3       2 GLP5        0.0000 
     32 CA         17.7997   20.6720   11.2515 C.3       1 GLC5        0.0000 
     33 CA         17.0530   19.8350    9.4750 C.3       3 GLL5        0.0000 
     34 CA         18.0630   21.1010   13.3160 C.3       2 GLP5        0.0000 
     35 CA         19.7865   21.4592    8.6632 C.3       1 GLC5        0.0000 
     36 CA         18.0200   20.6510    8.8990 C.3       3 GLL5        0.0000 
     37 CA         21.7330   21.6760    8.7470 C.3       2 GLP5        0.0000 
     38 CA         16.7804   19.1194    7.7685 C.3       1 GLC5        0.0000 
     39 CA         15.9240   18.2920    6.1960 C.3       2 GLP5        0.0000 
     40 CA         18.6355   20.9528    6.8582 C.3       1 GLC5        0.0000 
     41 CA         19.4310   20.6630    5.1370 C.3       2 GLP5        0.0000 
     42 CA         16.3685   21.4395    6.3788 C.3       1 GLC5        0.0000 
     43 CA         17.6600   21.8340    8.2600 C.3       3 GLL5        0.0000 
     44 CA         15.7440   20.8530    4.5280 C.3       2 GLP5        0.0000 
     45 CA         15.0995   19.9680    7.5565 C.3       1 GLC5        0.0000 
     46 CA         15.3590   21.4050    8.7790 C.3       3 GLL5        0.0000 
     47 CA         14.6600   19.1240    6.0180 C.3       2 GLP5        0.0000 
     48 CA         15.9255   25.7888    8.3260 C.3       1 GLC5        0.0000 
     49 CA         16.9210   27.4340    7.8140 C.3       2 GLP5        0.0000 
     50 CA         15.6007   26.6393    9.1263 C.3       1 GLC5        0.0000 
     51 CA         14.0230   25.2500   10.1820 C.3       3 GLL5        0.0000 
     52 CA         16.0524   25.0916   11.1210 C.3       1 GLC5        0.0000 
     53 CA         14.5380   26.4390   10.6950 C.3       3 GLL5        0.0000 
     54 CA         17.5850   24.6010   11.9490 C.3       2 GLP5        0.0000 
@<TRIPOS>BOND
@<TRIPOS>SUBSTRUCTURE
     1 GLC5        1 GROUP        1 X    GLC  0     ROOT GLC X 6
     2 GLP5        3 GROUP        1 Y    GLP  0     ROOT GLP Y 13
     3 GLL5        2 GROUP        1 Z    GLL  0     ROOT GLL Z 20
@<TRIPOS>SET

