#    Name: 4e4q_RRH_1_ligand
#    Modification time : Tue Mar 25 10:37:52 2014

@<TRIPOS>MOLECULE
4e4q_RRH_1_ligand
   50    52     1     0     0
SMALL
NO_CHARGES


@<TRIPOS>ATOM
      1 CAA        14.4420   17.3100   11.8810 C.3       1 RRH501      0.0000 
      2 CAZ        15.0480   17.9440   10.6280 C.3       1 RRH501      0.0000 
      3 CAB        14.4550   17.3160    9.3650 C.3       1 RRH501      0.0000 
      4 CAY        16.5660   17.7330   10.6430 C.ar      1 RRH501      0.0000 
      5 CAM        17.0490   16.5690   11.2360 C.ar      1 RRH501      0.0000 
      6 CAI        18.4120   16.3120   11.2820 C.ar      1 RRH501      0.0000 
      7 CAH        19.3030   17.2260   10.7310 C.ar      1 RRH501      0.0000 
      8 CAL        18.8200   18.3880   10.1390 C.ar      1 RRH501      0.0000 
      9 CAX        17.4540   18.6500   10.0910 C.ar      1 RRH501      0.0000 
     10 CAW        17.0530   19.8350    9.4750 C.ar      1 RRH501      0.0000 
     11 CAQ        18.0200   20.6510    8.8990 C.ar      1 RRH501      0.0000 
     12 CAO        17.6600   21.8340    8.2600 C.ar      1 RRH501      0.0000 
     13 CAP        15.7190   20.2190    9.4110 C.ar      1 RRH501      0.0000 
     14 CAN        15.3590   21.4050    8.7790 C.ar      1 RRH501      0.0000 
     15 CAV        16.3260   22.2180    8.1990 C.ar      1 RRH501      0.0000 
     16 OAS        15.9970   23.3610    7.5380 O.3       1 RRH501      0.0000 
     17 CBA        14.8800   24.0860    8.0760 C.3       1 RRH501      0.0000 
     18 CAT        13.5710   23.4450    7.6130 C.2       1 RRH501      0.0000 
     19 OAD        12.4950   23.9870    7.9420 O.co2     1 RRH501      0.0000 
     20 OAC        13.6410   22.4150    6.9100 O.co2     1 RRH501      0.0000 
     21 CAR        14.9800   24.2010    9.6000 C.3       1 RRH501      0.0000 
     22 CAU        14.0230   25.2500   10.1820 C.ar      1 RRH501      0.0000 
     23 CAJ        12.6450   25.0240   10.1980 C.ar      1 RRH501      0.0000 
     24 CAF        11.7910   25.9840   10.7310 C.ar      1 RRH501      0.0000 
     25 CAE        12.3060   27.1770   11.2350 C.ar      1 RRH501      0.0000 
     26 CAG        13.6780   27.4060   11.2120 C.ar      1 RRH501      0.0000 
     27 CAK        14.5380   26.4390   10.6950 C.ar      1 RRH501      0.0000 
     28 H          14.8450   18.9942   10.6308 H         1 RRH501      0.0000 
     29 H          16.3847   15.8920   11.6448 H         1 RRH501      0.0000 
     30 H          18.7615   15.4523   11.7201 H         1 RRH501      0.0000 
     31 H          20.3125   17.0442   10.7609 H         1 RRH501      0.0000 
     32 H          19.4840   19.0665    9.7290 H         1 RRH501      0.0000 
     33 H          19.0145   20.3777    8.9452 H         1 RRH501      0.0000 
     34 H          18.3855   22.4259    7.8313 H         1 RRH501      0.0000 
     35 H          14.9922   19.6228    9.8335 H         1 RRH501      0.0000 
     36 H          14.3659   21.6830    8.7407 H         1 RRH501      0.0000 
     37 H          14.8904   25.1170    7.6727 H         1 RRH501      0.0000 
     38 H          16.0080   24.4669    9.8725 H         1 RRH501      0.0000 
     39 H          14.7550   23.2262   10.0483 H         1 RRH501      0.0000 
     40 H          12.2652   24.1500    9.8164 H         1 RRH501      0.0000 
     41 H          10.7766   25.8141   10.7538 H         1 RRH501      0.0000 
     42 H          11.6719   27.8861   11.6230 H         1 RRH501      0.0000 
     43 H          14.0587   28.2886   11.5763 H         1 RRH501      0.0000 
     44 H          15.5524   26.6027   10.6920 H         1 RRH501      0.0000 
     45 H          14.6190   16.3266   11.9223 H         1 RRH501      0.0000 
     46 H          14.8156   17.7105   12.7177 H         1 RRH501      0.0000 
     47 H          13.4500   17.4310   11.9158 H         1 RRH501      0.0000 
     48 H          14.8426   17.7157    8.5343 H         1 RRH501      0.0000 
     49 H          14.6263   16.3316    9.3241 H         1 RRH501      0.0000 
     50 H          13.4643   17.4433    9.3169 H         1 RRH501      0.0000 
@<TRIPOS>BOND
     1    2    1 1    
     2   45    1 1    
     3   46    1 1    
     4   47    1 1    
     5    3    2 1    
     6    4    2 1    
     7   28    2 1    
     8   48    3 1    
     9   49    3 1    
    10   50    3 1    
    11    5    4 ar   
    12    9    4 ar   
    13    6    5 ar   
    14   29    5 1    
    15    7    6 ar   
    16   30    6 1    
    17    8    7 ar   
    18   31    7 1    
    19    9    8 ar   
    20   32    8 1    
    21   10    9 1    
    22   11   10 ar   
    23   13   10 ar   
    24   12   11 ar   
    25   33   11 1    
    26   15   12 ar   
    27   34   12 1    
    28   14   13 ar   
    29   35   13 1    
    30   15   14 ar   
    31   36   14 1    
    32   16   15 1    
    33   17   16 1    
    34   18   17 1    
    35   21   17 1    
    36   37   17 1    
    37   19   18 ar   
    38   20   18 ar   
    39   22   21 1    
    40   38   21 1    
    41   39   21 1    
    42   23   22 ar   
    43   27   22 ar   
    44   24   23 ar   
    45   40   23 1    
    46   25   24 ar   
    47   41   24 1    
    48   26   25 ar   
    49   42   25 1    
    50   27   26 ar   
    51   43   26 1    
    52   44   27 1    
@<TRIPOS>SUBSTRUCTURE
     1 RRH501      1 GROUP   
@<TRIPOS>SET

